
---------- Begin Simulation Statistics ----------
sim_seconds                                  0.841384                       # Number of seconds simulated
sim_ticks                                841383525915                       # Number of ticks simulated
final_tick                               1174605284934                       # Number of ticks from beginning of simulation (restored from checkpoints and never reset)
sim_freq                                 1000000000000                       # Frequency of simulated ticks
host_inst_rate                                 143088                       # Simulator instruction rate (inst/s)
host_op_rate                                   143088                       # Simulator op (including micro ops) rate (op/s)
host_tick_rate                               40130547                       # Simulator tick rate (ticks/s)
host_mem_usage                                2346936                       # Number of bytes of host memory used
host_seconds                                 20966.16                       # Real time elapsed on the host
sim_insts                                  3000000008                       # Number of instructions simulated
sim_ops                                    3000000008                       # Number of ops (including micro ops) simulated
system.mem_ctrls.bytes_read::switch_cpus.inst          768                       # Number of bytes read from this memory
system.mem_ctrls.bytes_read::switch_cpus.data        90240                       # Number of bytes read from this memory
system.mem_ctrls.bytes_read::total              91008                       # Number of bytes read from this memory
system.mem_ctrls.bytes_inst_read::switch_cpus.inst          768                       # Number of instructions bytes read from this memory
system.mem_ctrls.bytes_inst_read::total           768                       # Number of instructions bytes read from this memory
system.mem_ctrls.bytes_written::writebacks        89536                       # Number of bytes written to this memory
system.mem_ctrls.bytes_written::total           89536                       # Number of bytes written to this memory
system.mem_ctrls.num_reads::switch_cpus.inst           12                       # Number of read requests responded to by this memory
system.mem_ctrls.num_reads::switch_cpus.data         1410                       # Number of read requests responded to by this memory
system.mem_ctrls.num_reads::total                1422                       # Number of read requests responded to by this memory
system.mem_ctrls.num_writes::writebacks          1399                       # Number of write requests responded to by this memory
system.mem_ctrls.num_writes::total               1399                       # Number of write requests responded to by this memory
system.mem_ctrls.bw_read::switch_cpus.inst          913                       # Total read bandwidth from this memory (bytes/s)
system.mem_ctrls.bw_read::switch_cpus.data       107252                       # Total read bandwidth from this memory (bytes/s)
system.mem_ctrls.bw_read::total                108165                       # Total read bandwidth from this memory (bytes/s)
system.mem_ctrls.bw_inst_read::switch_cpus.inst          913                       # Instruction read bandwidth from this memory (bytes/s)
system.mem_ctrls.bw_inst_read::total              913                       # Instruction read bandwidth from this memory (bytes/s)
system.mem_ctrls.bw_write::writebacks          106415                       # Write bandwidth from this memory (bytes/s)
system.mem_ctrls.bw_write::total               106415                       # Write bandwidth from this memory (bytes/s)
system.mem_ctrls.bw_total::writebacks          106415                       # Total bandwidth to/from this memory (bytes/s)
system.mem_ctrls.bw_total::switch_cpus.inst          913                       # Total bandwidth to/from this memory (bytes/s)
system.mem_ctrls.bw_total::switch_cpus.data       107252                       # Total bandwidth to/from this memory (bytes/s)
system.mem_ctrls.bw_total::total               214580                       # Total bandwidth to/from this memory (bytes/s)
system.mem_ctrls.readReqs                        1422                       # Total number of read requests accepted by DRAM controller
system.mem_ctrls.writeReqs                       1399                       # Total number of write requests accepted by DRAM controller
system.mem_ctrls.readBursts                      1422                       # Total number of DRAM read bursts. Each DRAM read request translates to either one or multiple DRAM read bursts
system.mem_ctrls.writeBursts                     1399                       # Total number of DRAM write bursts. Each DRAM write request translates to either one or multiple DRAM write bursts
system.mem_ctrls.bytesRead                      91008                       # Total number of bytes read from memory
system.mem_ctrls.bytesWritten                   89536                       # Total number of bytes written to memory
system.mem_ctrls.bytesConsumedRd                91008                       # bytesRead derated as per pkt->getSize()
system.mem_ctrls.bytesConsumedWr                89536                       # bytesWritten derated as per pkt->getSize()
system.mem_ctrls.servicedByWrQ                      0                       # Number of DRAM read bursts serviced by write Q
system.mem_ctrls.neitherReadNorWrite                0                       # Reqs where no action is needed
system.mem_ctrls.perBankRdReqs::0                 100                       # Track reads on a per bank basis
system.mem_ctrls.perBankRdReqs::1                 118                       # Track reads on a per bank basis
system.mem_ctrls.perBankRdReqs::2                  56                       # Track reads on a per bank basis
system.mem_ctrls.perBankRdReqs::3                  91                       # Track reads on a per bank basis
system.mem_ctrls.perBankRdReqs::4                  58                       # Track reads on a per bank basis
system.mem_ctrls.perBankRdReqs::5                 196                       # Track reads on a per bank basis
system.mem_ctrls.perBankRdReqs::6                 104                       # Track reads on a per bank basis
system.mem_ctrls.perBankRdReqs::7                 107                       # Track reads on a per bank basis
system.mem_ctrls.perBankRdReqs::8                 122                       # Track reads on a per bank basis
system.mem_ctrls.perBankRdReqs::9                  85                       # Track reads on a per bank basis
system.mem_ctrls.perBankRdReqs::10                 45                       # Track reads on a per bank basis
system.mem_ctrls.perBankRdReqs::11                 65                       # Track reads on a per bank basis
system.mem_ctrls.perBankRdReqs::12                 80                       # Track reads on a per bank basis
system.mem_ctrls.perBankRdReqs::13                 77                       # Track reads on a per bank basis
system.mem_ctrls.perBankRdReqs::14                 63                       # Track reads on a per bank basis
system.mem_ctrls.perBankRdReqs::15                 55                       # Track reads on a per bank basis
system.mem_ctrls.perBankWrReqs::0                 100                       # Track writes on a per bank basis
system.mem_ctrls.perBankWrReqs::1                 116                       # Track writes on a per bank basis
system.mem_ctrls.perBankWrReqs::2                  56                       # Track writes on a per bank basis
system.mem_ctrls.perBankWrReqs::3                  89                       # Track writes on a per bank basis
system.mem_ctrls.perBankWrReqs::4                  59                       # Track writes on a per bank basis
system.mem_ctrls.perBankWrReqs::5                 190                       # Track writes on a per bank basis
system.mem_ctrls.perBankWrReqs::6                 102                       # Track writes on a per bank basis
system.mem_ctrls.perBankWrReqs::7                 106                       # Track writes on a per bank basis
system.mem_ctrls.perBankWrReqs::8                 119                       # Track writes on a per bank basis
system.mem_ctrls.perBankWrReqs::9                  83                       # Track writes on a per bank basis
system.mem_ctrls.perBankWrReqs::10                 44                       # Track writes on a per bank basis
system.mem_ctrls.perBankWrReqs::11                 65                       # Track writes on a per bank basis
system.mem_ctrls.perBankWrReqs::12                 80                       # Track writes on a per bank basis
system.mem_ctrls.perBankWrReqs::13                 77                       # Track writes on a per bank basis
system.mem_ctrls.perBankWrReqs::14                 61                       # Track writes on a per bank basis
system.mem_ctrls.perBankWrReqs::15                 52                       # Track writes on a per bank basis
system.mem_ctrls.numRdRetry                         0                       # Number of times rd buffer was full causing retry
system.mem_ctrls.numWrRetry                         0                       # Number of times wr buffer was full causing retry
system.mem_ctrls.totGap                  837602604621                       # Total gap between requests
system.mem_ctrls.readPktSize::0                     0                       # Categorize read packet sizes
system.mem_ctrls.readPktSize::1                     0                       # Categorize read packet sizes
system.mem_ctrls.readPktSize::2                     0                       # Categorize read packet sizes
system.mem_ctrls.readPktSize::3                     0                       # Categorize read packet sizes
system.mem_ctrls.readPktSize::4                     0                       # Categorize read packet sizes
system.mem_ctrls.readPktSize::5                     0                       # Categorize read packet sizes
system.mem_ctrls.readPktSize::6                  1422                       # Categorize read packet sizes
system.mem_ctrls.writePktSize::0                    0                       # Categorize write packet sizes
system.mem_ctrls.writePktSize::1                    0                       # Categorize write packet sizes
system.mem_ctrls.writePktSize::2                    0                       # Categorize write packet sizes
system.mem_ctrls.writePktSize::3                    0                       # Categorize write packet sizes
system.mem_ctrls.writePktSize::4                    0                       # Categorize write packet sizes
system.mem_ctrls.writePktSize::5                    0                       # Categorize write packet sizes
system.mem_ctrls.writePktSize::6                 1399                       # Categorize write packet sizes
system.mem_ctrls.rdQLenPdf::0                    1401                       # What read queue length does an incoming req see
system.mem_ctrls.rdQLenPdf::1                      18                       # What read queue length does an incoming req see
system.mem_ctrls.rdQLenPdf::2                       3                       # What read queue length does an incoming req see
system.mem_ctrls.rdQLenPdf::3                       0                       # What read queue length does an incoming req see
system.mem_ctrls.rdQLenPdf::4                       0                       # What read queue length does an incoming req see
system.mem_ctrls.rdQLenPdf::5                       0                       # What read queue length does an incoming req see
system.mem_ctrls.rdQLenPdf::6                       0                       # What read queue length does an incoming req see
system.mem_ctrls.rdQLenPdf::7                       0                       # What read queue length does an incoming req see
system.mem_ctrls.rdQLenPdf::8                       0                       # What read queue length does an incoming req see
system.mem_ctrls.rdQLenPdf::9                       0                       # What read queue length does an incoming req see
system.mem_ctrls.rdQLenPdf::10                      0                       # What read queue length does an incoming req see
system.mem_ctrls.rdQLenPdf::11                      0                       # What read queue length does an incoming req see
system.mem_ctrls.rdQLenPdf::12                      0                       # What read queue length does an incoming req see
system.mem_ctrls.rdQLenPdf::13                      0                       # What read queue length does an incoming req see
system.mem_ctrls.rdQLenPdf::14                      0                       # What read queue length does an incoming req see
system.mem_ctrls.rdQLenPdf::15                      0                       # What read queue length does an incoming req see
system.mem_ctrls.rdQLenPdf::16                      0                       # What read queue length does an incoming req see
system.mem_ctrls.rdQLenPdf::17                      0                       # What read queue length does an incoming req see
system.mem_ctrls.rdQLenPdf::18                      0                       # What read queue length does an incoming req see
system.mem_ctrls.rdQLenPdf::19                      0                       # What read queue length does an incoming req see
system.mem_ctrls.rdQLenPdf::20                      0                       # What read queue length does an incoming req see
system.mem_ctrls.rdQLenPdf::21                      0                       # What read queue length does an incoming req see
system.mem_ctrls.rdQLenPdf::22                      0                       # What read queue length does an incoming req see
system.mem_ctrls.rdQLenPdf::23                      0                       # What read queue length does an incoming req see
system.mem_ctrls.rdQLenPdf::24                      0                       # What read queue length does an incoming req see
system.mem_ctrls.rdQLenPdf::25                      0                       # What read queue length does an incoming req see
system.mem_ctrls.rdQLenPdf::26                      0                       # What read queue length does an incoming req see
system.mem_ctrls.rdQLenPdf::27                      0                       # What read queue length does an incoming req see
system.mem_ctrls.rdQLenPdf::28                      0                       # What read queue length does an incoming req see
system.mem_ctrls.rdQLenPdf::29                      0                       # What read queue length does an incoming req see
system.mem_ctrls.rdQLenPdf::30                      0                       # What read queue length does an incoming req see
system.mem_ctrls.rdQLenPdf::31                      0                       # What read queue length does an incoming req see
system.mem_ctrls.wrQLenPdf::0                      61                       # What write queue length does an incoming req see
system.mem_ctrls.wrQLenPdf::1                      61                       # What write queue length does an incoming req see
system.mem_ctrls.wrQLenPdf::2                      61                       # What write queue length does an incoming req see
system.mem_ctrls.wrQLenPdf::3                      61                       # What write queue length does an incoming req see
system.mem_ctrls.wrQLenPdf::4                      61                       # What write queue length does an incoming req see
system.mem_ctrls.wrQLenPdf::5                      61                       # What write queue length does an incoming req see
system.mem_ctrls.wrQLenPdf::6                      61                       # What write queue length does an incoming req see
system.mem_ctrls.wrQLenPdf::7                      61                       # What write queue length does an incoming req see
system.mem_ctrls.wrQLenPdf::8                      61                       # What write queue length does an incoming req see
system.mem_ctrls.wrQLenPdf::9                      61                       # What write queue length does an incoming req see
system.mem_ctrls.wrQLenPdf::10                     61                       # What write queue length does an incoming req see
system.mem_ctrls.wrQLenPdf::11                     61                       # What write queue length does an incoming req see
system.mem_ctrls.wrQLenPdf::12                     61                       # What write queue length does an incoming req see
system.mem_ctrls.wrQLenPdf::13                     61                       # What write queue length does an incoming req see
system.mem_ctrls.wrQLenPdf::14                     61                       # What write queue length does an incoming req see
system.mem_ctrls.wrQLenPdf::15                     61                       # What write queue length does an incoming req see
system.mem_ctrls.wrQLenPdf::16                     61                       # What write queue length does an incoming req see
system.mem_ctrls.wrQLenPdf::17                     61                       # What write queue length does an incoming req see
system.mem_ctrls.wrQLenPdf::18                     61                       # What write queue length does an incoming req see
system.mem_ctrls.wrQLenPdf::19                     60                       # What write queue length does an incoming req see
system.mem_ctrls.wrQLenPdf::20                     60                       # What write queue length does an incoming req see
system.mem_ctrls.wrQLenPdf::21                     60                       # What write queue length does an incoming req see
system.mem_ctrls.wrQLenPdf::22                     60                       # What write queue length does an incoming req see
system.mem_ctrls.wrQLenPdf::23                      0                       # What write queue length does an incoming req see
system.mem_ctrls.wrQLenPdf::24                      0                       # What write queue length does an incoming req see
system.mem_ctrls.wrQLenPdf::25                      0                       # What write queue length does an incoming req see
system.mem_ctrls.wrQLenPdf::26                      0                       # What write queue length does an incoming req see
system.mem_ctrls.wrQLenPdf::27                      0                       # What write queue length does an incoming req see
system.mem_ctrls.wrQLenPdf::28                      0                       # What write queue length does an incoming req see
system.mem_ctrls.wrQLenPdf::29                      0                       # What write queue length does an incoming req see
system.mem_ctrls.wrQLenPdf::30                      0                       # What write queue length does an incoming req see
system.mem_ctrls.wrQLenPdf::31                      0                       # What write queue length does an incoming req see
system.mem_ctrls.bytesPerActivate::samples         1328                       # Bytes accessed per row activation
system.mem_ctrls.bytesPerActivate::mean    134.409639                       # Bytes accessed per row activation
system.mem_ctrls.bytesPerActivate::gmean    90.530330                       # Bytes accessed per row activation
system.mem_ctrls.bytesPerActivate::stdev   194.115887                       # Bytes accessed per row activation
system.mem_ctrls.bytesPerActivate::64            1002     75.45%     75.45% # Bytes accessed per row activation
system.mem_ctrls.bytesPerActivate::128            120      9.04%     84.49% # Bytes accessed per row activation
system.mem_ctrls.bytesPerActivate::192             45      3.39%     87.88% # Bytes accessed per row activation
system.mem_ctrls.bytesPerActivate::256             28      2.11%     89.98% # Bytes accessed per row activation
system.mem_ctrls.bytesPerActivate::320             23      1.73%     91.72% # Bytes accessed per row activation
system.mem_ctrls.bytesPerActivate::384             23      1.73%     93.45% # Bytes accessed per row activation
system.mem_ctrls.bytesPerActivate::448             11      0.83%     94.28% # Bytes accessed per row activation
system.mem_ctrls.bytesPerActivate::512             15      1.13%     95.41% # Bytes accessed per row activation
system.mem_ctrls.bytesPerActivate::576              5      0.38%     95.78% # Bytes accessed per row activation
system.mem_ctrls.bytesPerActivate::640             10      0.75%     96.54% # Bytes accessed per row activation
system.mem_ctrls.bytesPerActivate::704             10      0.75%     97.29% # Bytes accessed per row activation
system.mem_ctrls.bytesPerActivate::768              4      0.30%     97.59% # Bytes accessed per row activation
system.mem_ctrls.bytesPerActivate::832              3      0.23%     97.82% # Bytes accessed per row activation
system.mem_ctrls.bytesPerActivate::896              4      0.30%     98.12% # Bytes accessed per row activation
system.mem_ctrls.bytesPerActivate::960              5      0.38%     98.49% # Bytes accessed per row activation
system.mem_ctrls.bytesPerActivate::1024             3      0.23%     98.72% # Bytes accessed per row activation
system.mem_ctrls.bytesPerActivate::1088             5      0.38%     99.10% # Bytes accessed per row activation
system.mem_ctrls.bytesPerActivate::1152             2      0.15%     99.25% # Bytes accessed per row activation
system.mem_ctrls.bytesPerActivate::1216             5      0.38%     99.62% # Bytes accessed per row activation
system.mem_ctrls.bytesPerActivate::1408             2      0.15%     99.77% # Bytes accessed per row activation
system.mem_ctrls.bytesPerActivate::1472             3      0.23%    100.00% # Bytes accessed per row activation
system.mem_ctrls.bytesPerActivate::total         1328                       # Bytes accessed per row activation
system.mem_ctrls.totQLat                     28482347                       # Total cycles spent in queuing delays
system.mem_ctrls.totMemAccLat                61401097                       # Sum of mem lat for all requests
system.mem_ctrls.totBusLat                    7110000                       # Total cycles spent in databus access
system.mem_ctrls.totBankLat                  25808750                       # Total cycles spent in bank access
system.mem_ctrls.avgQLat                     20029.78                       # Average queueing delay per request
system.mem_ctrls.avgBankLat                  18149.61                       # Average bank access latency per request
system.mem_ctrls.avgBusLat                    5000.00                       # Average bus latency per request
system.mem_ctrls.avgMemAccLat                43179.39                       # Average memory access latency
system.mem_ctrls.avgRdBW                         0.11                       # Average achieved read bandwidth in MB/s
system.mem_ctrls.avgWrBW                         0.11                       # Average achieved write bandwidth in MB/s
system.mem_ctrls.avgConsumedRdBW                 0.11                       # Average consumed read bandwidth in MB/s
system.mem_ctrls.avgConsumedWrBW                 0.11                       # Average consumed write bandwidth in MB/s
system.mem_ctrls.peakBW                      12800.00                       # Theoretical peak bandwidth in MB/s
system.mem_ctrls.busUtil                         0.00                       # Data bus utilization in percentage
system.mem_ctrls.avgRdQLen                       0.00                       # Average read queue length over time
system.mem_ctrls.avgWrQLen                      10.05                       # Average write queue length over time
system.mem_ctrls.readRowHits                     1167                       # Number of row buffer hits during reads
system.mem_ctrls.writeRowHits                     307                       # Number of row buffer hits during writes
system.mem_ctrls.readRowHitRate                 82.07                       # Row buffer hit rate for reads
system.mem_ctrls.writeRowHitRate                21.94                       # Row buffer hit rate for writes
system.mem_ctrls.avgGap                  296916910.54                       # Average gap between requests
system.membus.throughput                       214580                       # Throughput (bytes/s)
system.membus.trans_dist::ReadReq                 118                       # Transaction distribution
system.membus.trans_dist::ReadResp                118                       # Transaction distribution
system.membus.trans_dist::Writeback              1399                       # Transaction distribution
system.membus.trans_dist::ReadExReq              1304                       # Transaction distribution
system.membus.trans_dist::ReadExResp             1304                       # Transaction distribution
system.membus.pkt_count_system.l2.mem_side::system.mem_ctrls.port         4243                       # Packet count per connected master and slave (bytes)
system.membus.pkt_count::total                   4243                       # Packet count per connected master and slave (bytes)
system.membus.tot_pkt_size_system.l2.mem_side::system.mem_ctrls.port       180544                       # Cumulative packet size per connected master and slave (bytes)
system.membus.tot_pkt_size::total              180544                       # Cumulative packet size per connected master and slave (bytes)
system.membus.data_through_bus                 180544                       # Total data (bytes)
system.membus.snoop_data_through_bus                0                       # Total snoop data (bytes)
system.membus.reqLayer0.occupancy             4666329                       # Layer occupancy (ticks)
system.membus.reqLayer0.utilization               0.0                       # Layer utilization (%)
system.membus.respLayer1.occupancy            4523777                       # Layer occupancy (ticks)
system.membus.respLayer1.utilization              0.0                       # Layer utilization (%)
system.switch_cpus.branchPred.lookups       752236445                       # Number of BP lookups
system.switch_cpus.branchPred.condPredicted    742960355                       # Number of conditional branches predicted
system.switch_cpus.branchPred.condIncorrect     88082133                       # Number of conditional branches incorrect
system.switch_cpus.branchPred.BTBLookups    462826754                       # Number of BTB lookups
system.switch_cpus.branchPred.BTBHits       462707925                       # Number of BTB hits
system.switch_cpus.branchPred.BTBCorrect            0                       # Number of correct BTB predictions (this stat may not work properly.
system.switch_cpus.branchPred.BTBHitPct     99.974325                       # BTB Hit Percentage
system.switch_cpus.branchPred.usedRAS         8715092                       # Number of times the RAS was used to get a target.
system.switch_cpus.branchPred.RASInCorrect          205                       # Number of incorrect RAS predictions.
system.switch_cpus.dtb.fetch_hits                   0                       # ITB hits
system.switch_cpus.dtb.fetch_misses                 0                       # ITB misses
system.switch_cpus.dtb.fetch_acv                    0                       # ITB acv
system.switch_cpus.dtb.fetch_accesses               0                       # ITB accesses
system.switch_cpus.dtb.read_hits            879315293                       # DTB read hits
system.switch_cpus.dtb.read_misses            5027875                       # DTB read misses
system.switch_cpus.dtb.read_acv                     0                       # DTB read access violations
system.switch_cpus.dtb.read_accesses        884343168                       # DTB read accesses
system.switch_cpus.dtb.write_hits           118828636                       # DTB write hits
system.switch_cpus.dtb.write_misses            311425                       # DTB write misses
system.switch_cpus.dtb.write_acv                    0                       # DTB write access violations
system.switch_cpus.dtb.write_accesses       119140061                       # DTB write accesses
system.switch_cpus.dtb.data_hits            998143929                       # DTB hits
system.switch_cpus.dtb.data_misses            5339300                       # DTB misses
system.switch_cpus.dtb.data_acv                     0                       # DTB access violations
system.switch_cpus.dtb.data_accesses       1003483229                       # DTB accesses
system.switch_cpus.itb.fetch_hits           723333166                       # ITB hits
system.switch_cpus.itb.fetch_misses               944                       # ITB misses
system.switch_cpus.itb.fetch_acv                    0                       # ITB acv
system.switch_cpus.itb.fetch_accesses       723334110                       # ITB accesses
system.switch_cpus.itb.read_hits                    0                       # DTB read hits
system.switch_cpus.itb.read_misses                  0                       # DTB read misses
system.switch_cpus.itb.read_acv                     0                       # DTB read access violations
system.switch_cpus.itb.read_accesses                0                       # DTB read accesses
system.switch_cpus.itb.write_hits                   0                       # DTB write hits
system.switch_cpus.itb.write_misses                 0                       # DTB write misses
system.switch_cpus.itb.write_acv                    0                       # DTB write access violations
system.switch_cpus.itb.write_accesses               0                       # DTB write accesses
system.switch_cpus.itb.data_hits                    0                       # DTB hits
system.switch_cpus.itb.data_misses                  0                       # DTB misses
system.switch_cpus.itb.data_acv                     0                       # DTB access violations
system.switch_cpus.itb.data_accesses                0                       # DTB accesses
system.cpu.workload.num_syscalls                    0                       # Number of system calls
system.switch_cpus.numCycles               2526677255                       # number of cpu cycles simulated
system.switch_cpus.numWorkItemsStarted              0                       # number of work items this cpu started
system.switch_cpus.numWorkItemsCompleted            0                       # number of work items this cpu completed
system.switch_cpus.fetch.icacheStallCycles   1451411802                       # Number of cycles fetch is stalled on an Icache miss
system.switch_cpus.fetch.Insts             4427704150                       # Number of instructions fetch has processed
system.switch_cpus.fetch.Branches           752236445                       # Number of branches that fetch encountered
system.switch_cpus.fetch.predictedBranches    471423017                       # Number of branches that fetch has predicted taken
system.switch_cpus.fetch.Cycles             818776347                       # Number of cycles fetch has run and was not squashing or blocked
system.switch_cpus.fetch.SquashCycles       345738436                       # Number of cycles fetch has spent squashing
system.switch_cpus.fetch.BlockedCycles         256973                       # Number of cycles fetch has spent blocked
system.switch_cpus.fetch.MiscStallCycles           36                       # Number of cycles fetch has spent waiting on interrupts, or bad addresses, or out of MSHRs
system.switch_cpus.fetch.PendingTrapStallCycles         7810                       # Number of stall cycles due to pending traps
system.switch_cpus.fetch.CacheLines         723333166                       # Number of cache lines fetched
system.switch_cpus.fetch.IcacheSquashes      52334814                       # Number of outstanding Icache misses that were squashed
system.switch_cpus.fetch.rateDist::samples   2526673665                       # Number of instructions fetched each cycle (Total)
system.switch_cpus.fetch.rateDist::mean      1.752385                       # Number of instructions fetched each cycle (Total)
system.switch_cpus.fetch.rateDist::stdev     2.880899                       # Number of instructions fetched each cycle (Total)
system.switch_cpus.fetch.rateDist::underflows            0      0.00%      0.00% # Number of instructions fetched each cycle (Total)
system.switch_cpus.fetch.rateDist::0       1707897318     67.59%     67.59% # Number of instructions fetched each cycle (Total)
system.switch_cpus.fetch.rateDist::1         85663104      3.39%     70.99% # Number of instructions fetched each cycle (Total)
system.switch_cpus.fetch.rateDist::2         68626108      2.72%     73.70% # Number of instructions fetched each cycle (Total)
system.switch_cpus.fetch.rateDist::3         11327385      0.45%     74.15% # Number of instructions fetched each cycle (Total)
system.switch_cpus.fetch.rateDist::4         76595152      3.03%     77.18% # Number of instructions fetched each cycle (Total)
system.switch_cpus.fetch.rateDist::5        206647888      8.18%     85.36% # Number of instructions fetched each cycle (Total)
system.switch_cpus.fetch.rateDist::6         61535918      2.44%     87.79% # Number of instructions fetched each cycle (Total)
system.switch_cpus.fetch.rateDist::7          5075217      0.20%     88.00% # Number of instructions fetched each cycle (Total)
system.switch_cpus.fetch.rateDist::8        303305575     12.00%    100.00% # Number of instructions fetched each cycle (Total)
system.switch_cpus.fetch.rateDist::overflows            0      0.00%    100.00% # Number of instructions fetched each cycle (Total)
system.switch_cpus.fetch.rateDist::min_value            0                       # Number of instructions fetched each cycle (Total)
system.switch_cpus.fetch.rateDist::max_value            8                       # Number of instructions fetched each cycle (Total)
system.switch_cpus.fetch.rateDist::total   2526673665                       # Number of instructions fetched each cycle (Total)
system.switch_cpus.fetch.branchRate          0.297718                       # Number of branch fetches per cycle
system.switch_cpus.fetch.rate                1.752382                       # Number of inst fetches per cycle
system.switch_cpus.decode.IdleCycles       1486460551                       # Number of cycles decode is idle
system.switch_cpus.decode.BlockedCycles        295803                       # Number of cycles decode is blocked
system.switch_cpus.decode.RunCycles         783634569                       # Number of cycles decode is running
system.switch_cpus.decode.UnblockCycles         62395                       # Number of cycles decode is unblocking
system.switch_cpus.decode.SquashCycles      256220346                       # Number of cycles decode is squashing
system.switch_cpus.decode.BranchResolved       506268                       # Number of times decode resolved a branch
system.switch_cpus.decode.BranchMispred           362                       # Number of times decode detected a branch misprediction
system.switch_cpus.decode.DecodedInsts     4237438378                       # Number of instructions handled by decode
system.switch_cpus.decode.SquashedInsts           394                       # Number of squashed instructions handled by decode
system.switch_cpus.rename.SquashCycles      256220346                       # Number of cycles rename is squashing
system.switch_cpus.rename.IdleCycles       1518514881                       # Number of cycles rename is idle
system.switch_cpus.rename.BlockCycles          196952                       # Number of cycles rename is blocking
system.switch_cpus.rename.serializeStallCycles        61776                       # count of cycles rename stalled for serializing inst
system.switch_cpus.rename.RunCycles         751612627                       # Number of cycles rename is running
system.switch_cpus.rename.UnblockCycles         67082                       # Number of cycles rename is unblocking
system.switch_cpus.rename.RenamedInsts     4073699502                       # Number of instructions processed by rename
system.switch_cpus.rename.ROBFullEvents           136                       # Number of times rename has blocked due to ROB full
system.switch_cpus.rename.IQFullEvents            189                       # Number of times rename has blocked due to IQ full
system.switch_cpus.rename.LSQFullEvents         83378                       # Number of times rename has blocked due to LSQ full
system.switch_cpus.rename.RenamedOperands   3232850610                       # Number of destination operands rename has renamed
system.switch_cpus.rename.RenameLookups    5881079007                       # Number of register rename lookups that rename has made
system.switch_cpus.rename.int_rename_lookups   5881000616                       # Number of integer rename lookups
system.switch_cpus.rename.fp_rename_lookups        78391                       # Number of floating rename lookups
system.switch_cpus.rename.CommittedMaps    1583643232                       # Number of HB maps that are committed
system.switch_cpus.rename.UndoneMaps       1649207356                       # Number of HB maps that are undone due to squashing
system.switch_cpus.rename.serializingInsts         2553                       # count of serializing insts renamed
system.switch_cpus.rename.tempSerializingInsts         2297                       # count of temporary serializing insts renamed
system.switch_cpus.rename.skidInsts            200862                       # count of insts added to the skid buffer
system.switch_cpus.memDep0.insertedLoads   1010662462                       # Number of loads inserted to the mem dependence unit.
system.switch_cpus.memDep0.insertedStores    139327416                       # Number of stores inserted to the mem dependence unit.
system.switch_cpus.memDep0.conflictingLoads     21645564                       # Number of conflicting loads.
system.switch_cpus.memDep0.conflictingStores      4660764                       # Number of conflicting stores.
system.switch_cpus.iq.iqInstsAdded         3744531755                       # Number of instructions added to the IQ (excludes non-spec)
system.switch_cpus.iq.iqNonSpecInstsAdded         3503                       # Number of non-speculative instructions added to the IQ
system.switch_cpus.iq.iqInstsIssued        3200466443                       # Number of instructions issued
system.switch_cpus.iq.iqSquashedInstsIssued      2313317                       # Number of squashed instructions issued
system.switch_cpus.iq.iqSquashedInstsExamined   1671984181                       # Number of squashed instructions iterated over during squash; mainly for profiling
system.switch_cpus.iq.iqSquashedOperandsExamined   1005249745                       # Number of squashed operands that are examined and possibly removed from graph
system.switch_cpus.iq.iqSquashedNonSpecRemoved         1495                       # Number of squashed non-spec instructions that were removed
system.switch_cpus.iq.issued_per_cycle::samples   2526673665                       # Number of insts issued each cycle
system.switch_cpus.iq.issued_per_cycle::mean     1.266672                       # Number of insts issued each cycle
system.switch_cpus.iq.issued_per_cycle::stdev     1.405298                       # Number of insts issued each cycle
system.switch_cpus.iq.issued_per_cycle::underflows            0      0.00%      0.00% # Number of insts issued each cycle
system.switch_cpus.iq.issued_per_cycle::0   1092808098     43.25%     43.25% # Number of insts issued each cycle
system.switch_cpus.iq.issued_per_cycle::1    411431355     16.28%     59.53% # Number of insts issued each cycle
system.switch_cpus.iq.issued_per_cycle::2    560018870     22.16%     81.70% # Number of insts issued each cycle
system.switch_cpus.iq.issued_per_cycle::3    277932552     11.00%     92.70% # Number of insts issued each cycle
system.switch_cpus.iq.issued_per_cycle::4    111460152      4.41%     97.11% # Number of insts issued each cycle
system.switch_cpus.iq.issued_per_cycle::5     56386565      2.23%     99.34% # Number of insts issued each cycle
system.switch_cpus.iq.issued_per_cycle::6      9035119      0.36%     99.70% # Number of insts issued each cycle
system.switch_cpus.iq.issued_per_cycle::7      7592087      0.30%    100.00% # Number of insts issued each cycle
system.switch_cpus.iq.issued_per_cycle::8         8867      0.00%    100.00% # Number of insts issued each cycle
system.switch_cpus.iq.issued_per_cycle::overflows            0      0.00%    100.00% # Number of insts issued each cycle
system.switch_cpus.iq.issued_per_cycle::min_value            0                       # Number of insts issued each cycle
system.switch_cpus.iq.issued_per_cycle::max_value            8                       # Number of insts issued each cycle
system.switch_cpus.iq.issued_per_cycle::total   2526673665                       # Number of insts issued each cycle
system.switch_cpus.iq.fu_full::No_OpClass            0      0.00%      0.00% # attempts to use FU when none available
system.switch_cpus.iq.fu_full::IntAlu           89016     16.72%     16.72% # attempts to use FU when none available
system.switch_cpus.iq.fu_full::IntMult              0      0.00%     16.72% # attempts to use FU when none available
system.switch_cpus.iq.fu_full::IntDiv               0      0.00%     16.72% # attempts to use FU when none available
system.switch_cpus.iq.fu_full::FloatAdd             0      0.00%     16.72% # attempts to use FU when none available
system.switch_cpus.iq.fu_full::FloatCmp             0      0.00%     16.72% # attempts to use FU when none available
system.switch_cpus.iq.fu_full::FloatCvt             0      0.00%     16.72% # attempts to use FU when none available
system.switch_cpus.iq.fu_full::FloatMult            0      0.00%     16.72% # attempts to use FU when none available
system.switch_cpus.iq.fu_full::FloatDiv             0      0.00%     16.72% # attempts to use FU when none available
system.switch_cpus.iq.fu_full::FloatSqrt            0      0.00%     16.72% # attempts to use FU when none available
system.switch_cpus.iq.fu_full::SimdAdd              0      0.00%     16.72% # attempts to use FU when none available
system.switch_cpus.iq.fu_full::SimdAddAcc            0      0.00%     16.72% # attempts to use FU when none available
system.switch_cpus.iq.fu_full::SimdAlu              0      0.00%     16.72% # attempts to use FU when none available
system.switch_cpus.iq.fu_full::SimdCmp              0      0.00%     16.72% # attempts to use FU when none available
system.switch_cpus.iq.fu_full::SimdCvt              0      0.00%     16.72% # attempts to use FU when none available
system.switch_cpus.iq.fu_full::SimdMisc             0      0.00%     16.72% # attempts to use FU when none available
system.switch_cpus.iq.fu_full::SimdMult             0      0.00%     16.72% # attempts to use FU when none available
system.switch_cpus.iq.fu_full::SimdMultAcc            0      0.00%     16.72% # attempts to use FU when none available
system.switch_cpus.iq.fu_full::SimdShift            0      0.00%     16.72% # attempts to use FU when none available
system.switch_cpus.iq.fu_full::SimdShiftAcc            0      0.00%     16.72% # attempts to use FU when none available
system.switch_cpus.iq.fu_full::SimdSqrt             0      0.00%     16.72% # attempts to use FU when none available
system.switch_cpus.iq.fu_full::SimdFloatAdd            0      0.00%     16.72% # attempts to use FU when none available
system.switch_cpus.iq.fu_full::SimdFloatAlu            0      0.00%     16.72% # attempts to use FU when none available
system.switch_cpus.iq.fu_full::SimdFloatCmp            0      0.00%     16.72% # attempts to use FU when none available
system.switch_cpus.iq.fu_full::SimdFloatCvt            0      0.00%     16.72% # attempts to use FU when none available
system.switch_cpus.iq.fu_full::SimdFloatDiv            0      0.00%     16.72% # attempts to use FU when none available
system.switch_cpus.iq.fu_full::SimdFloatMisc            0      0.00%     16.72% # attempts to use FU when none available
system.switch_cpus.iq.fu_full::SimdFloatMult            0      0.00%     16.72% # attempts to use FU when none available
system.switch_cpus.iq.fu_full::SimdFloatMultAcc            0      0.00%     16.72% # attempts to use FU when none available
system.switch_cpus.iq.fu_full::SimdFloatSqrt            0      0.00%     16.72% # attempts to use FU when none available
system.switch_cpus.iq.fu_full::MemRead         438396     82.36%     99.08% # attempts to use FU when none available
system.switch_cpus.iq.fu_full::MemWrite          4895      0.92%    100.00% # attempts to use FU when none available
system.switch_cpus.iq.fu_full::IprAccess            0      0.00%    100.00% # attempts to use FU when none available
system.switch_cpus.iq.fu_full::InstPrefetch            0      0.00%    100.00% # attempts to use FU when none available
system.switch_cpus.iq.FU_type_0::No_OpClass            0      0.00%      0.00% # Type of FU issued
system.switch_cpus.iq.FU_type_0::IntAlu    2144199986     67.00%     67.00% # Type of FU issued
system.switch_cpus.iq.FU_type_0::IntMult         6779      0.00%     67.00% # Type of FU issued
system.switch_cpus.iq.FU_type_0::IntDiv             0      0.00%     67.00% # Type of FU issued
system.switch_cpus.iq.FU_type_0::FloatAdd        18905      0.00%     67.00% # Type of FU issued
system.switch_cpus.iq.FU_type_0::FloatCmp            0      0.00%     67.00% # Type of FU issued
system.switch_cpus.iq.FU_type_0::FloatCvt        13711      0.00%     67.00% # Type of FU issued
system.switch_cpus.iq.FU_type_0::FloatMult         7366      0.00%     67.00% # Type of FU issued
system.switch_cpus.iq.FU_type_0::FloatDiv            0      0.00%     67.00% # Type of FU issued
system.switch_cpus.iq.FU_type_0::FloatSqrt            0      0.00%     67.00% # Type of FU issued
system.switch_cpus.iq.FU_type_0::SimdAdd            0      0.00%     67.00% # Type of FU issued
system.switch_cpus.iq.FU_type_0::SimdAddAcc            0      0.00%     67.00% # Type of FU issued
system.switch_cpus.iq.FU_type_0::SimdAlu            0      0.00%     67.00% # Type of FU issued
system.switch_cpus.iq.FU_type_0::SimdCmp            0      0.00%     67.00% # Type of FU issued
system.switch_cpus.iq.FU_type_0::SimdCvt            0      0.00%     67.00% # Type of FU issued
system.switch_cpus.iq.FU_type_0::SimdMisc            0      0.00%     67.00% # Type of FU issued
system.switch_cpus.iq.FU_type_0::SimdMult            0      0.00%     67.00% # Type of FU issued
system.switch_cpus.iq.FU_type_0::SimdMultAcc            0      0.00%     67.00% # Type of FU issued
system.switch_cpus.iq.FU_type_0::SimdShift            0      0.00%     67.00% # Type of FU issued
system.switch_cpus.iq.FU_type_0::SimdShiftAcc            0      0.00%     67.00% # Type of FU issued
system.switch_cpus.iq.FU_type_0::SimdSqrt            0      0.00%     67.00% # Type of FU issued
system.switch_cpus.iq.FU_type_0::SimdFloatAdd            0      0.00%     67.00% # Type of FU issued
system.switch_cpus.iq.FU_type_0::SimdFloatAlu            0      0.00%     67.00% # Type of FU issued
system.switch_cpus.iq.FU_type_0::SimdFloatCmp            0      0.00%     67.00% # Type of FU issued
system.switch_cpus.iq.FU_type_0::SimdFloatCvt            0      0.00%     67.00% # Type of FU issued
system.switch_cpus.iq.FU_type_0::SimdFloatDiv            0      0.00%     67.00% # Type of FU issued
system.switch_cpus.iq.FU_type_0::SimdFloatMisc            0      0.00%     67.00% # Type of FU issued
system.switch_cpus.iq.FU_type_0::SimdFloatMult            0      0.00%     67.00% # Type of FU issued
system.switch_cpus.iq.FU_type_0::SimdFloatMultAcc            0      0.00%     67.00% # Type of FU issued
system.switch_cpus.iq.FU_type_0::SimdFloatSqrt            0      0.00%     67.00% # Type of FU issued
system.switch_cpus.iq.FU_type_0::MemRead    931318755     29.10%     96.10% # Type of FU issued
system.switch_cpus.iq.FU_type_0::MemWrite    124900941      3.90%    100.00% # Type of FU issued
system.switch_cpus.iq.FU_type_0::IprAccess            0      0.00%    100.00% # Type of FU issued
system.switch_cpus.iq.FU_type_0::InstPrefetch            0      0.00%    100.00% # Type of FU issued
system.switch_cpus.iq.FU_type_0::total     3200466443                       # Type of FU issued
system.switch_cpus.iq.rate                   1.266670                       # Inst issue rate
system.switch_cpus.iq.fu_busy_cnt              532307                       # FU busy when requested
system.switch_cpus.iq.fu_busy_rate           0.000166                       # FU busy rate (busy events/executed inst)
system.switch_cpus.iq.int_inst_queue_reads   8930356481                       # Number of integer instruction queue reads
system.switch_cpus.iq.int_inst_queue_writes   5416452574                       # Number of integer instruction queue writes
system.switch_cpus.iq.int_inst_queue_wakeup_accesses   2943621610                       # Number of integer instruction queue wakeup accesses
system.switch_cpus.iq.fp_inst_queue_reads        95694                       # Number of floating instruction queue reads
system.switch_cpus.iq.fp_inst_queue_writes        74183                       # Number of floating instruction queue writes
system.switch_cpus.iq.fp_inst_queue_wakeup_accesses        45205                       # Number of floating instruction queue wakeup accesses
system.switch_cpus.iq.int_alu_accesses     3200950903                       # Number of integer alu accesses
system.switch_cpus.iq.fp_alu_accesses           47847                       # Number of floating point alu accesses
system.switch_cpus.iew.lsq.thread0.forwLoads        53931                       # Number of loads that had data forwarded from stores
system.switch_cpus.iew.lsq.thread0.invAddrLoads            0                       # Number of loads ignored due to an invalid address
system.switch_cpus.iew.lsq.thread0.squashedLoads    462223299                       # Number of loads squashed
system.switch_cpus.iew.lsq.thread0.ignoredResponses          463                       # Number of memory responses ignored because the instruction is squashed
system.switch_cpus.iew.lsq.thread0.memOrderViolation         7847                       # Number of memory ordering violations
system.switch_cpus.iew.lsq.thread0.squashedStores     64584609                       # Number of stores squashed
system.switch_cpus.iew.lsq.thread0.invAddrSwpfs            0                       # Number of software prefetches ignored due to an invalid address
system.switch_cpus.iew.lsq.thread0.blockedLoads            0                       # Number of blocked loads due to partial load-store forwarding
system.switch_cpus.iew.lsq.thread0.rescheduledLoads            0                       # Number of loads that were rescheduled
system.switch_cpus.iew.lsq.thread0.cacheBlocked        10760                       # Number of times an access to memory failed due to the cache being blocked
system.switch_cpus.iew.iewIdleCycles                0                       # Number of cycles IEW is idle
system.switch_cpus.iew.iewSquashCycles      256220346                       # Number of cycles IEW is squashing
system.switch_cpus.iew.iewBlockCycles             417                       # Number of cycles IEW is blocking
system.switch_cpus.iew.iewUnblockCycles           441                       # Number of cycles IEW is unblocking
system.switch_cpus.iew.iewDispatchedInsts   3745315925                       # Number of instructions dispatched to IQ
system.switch_cpus.iew.iewDispSquashedInsts      6337421                       # Number of squashed instructions skipped by dispatch
system.switch_cpus.iew.iewDispLoadInsts    1010662462                       # Number of dispatched load instructions
system.switch_cpus.iew.iewDispStoreInsts    139327416                       # Number of dispatched store instructions
system.switch_cpus.iew.iewDispNonSpecInsts         2112                       # Number of dispatched non-speculative instructions
system.switch_cpus.iew.iewIQFullEvents            448                       # Number of times the IQ has become full, causing a stall
system.switch_cpus.iew.iewLSQFullEvents             1                       # Number of times the LSQ has become full, causing a stall
system.switch_cpus.iew.memOrderViolationEvents         7847                       # Number of memory order violations
system.switch_cpus.iew.predictedTakenIncorrect     67958727                       # Number of branches that were predicted taken incorrectly
system.switch_cpus.iew.predictedNotTakenIncorrect     40750361                       # Number of branches that were predicted not taken incorrectly
system.switch_cpus.iew.branchMispredicts    108709088                       # Number of branch mispredicts detected at execute
system.switch_cpus.iew.iewExecutedInsts    3084089931                       # Number of executed instructions
system.switch_cpus.iew.iewExecLoadInsts     884343229                       # Number of load instructions executed
system.switch_cpus.iew.iewExecSquashedInsts    116376512                       # Number of squashed instructions skipped in execute
system.switch_cpus.iew.exec_swp                     0                       # number of swp insts executed
system.switch_cpus.iew.exec_nop                780667                       # number of nop insts executed
system.switch_cpus.iew.exec_refs           1003483304                       # number of memory reference insts executed
system.switch_cpus.iew.exec_branches        431821774                       # Number of branches executed
system.switch_cpus.iew.exec_stores          119140075                       # Number of stores executed
system.switch_cpus.iew.exec_rate             1.220611                       # Inst execution rate
system.switch_cpus.iew.wb_sent             2984206218                       # cumulative count of insts sent to commit
system.switch_cpus.iew.wb_count            2943666815                       # cumulative count of insts written-back
system.switch_cpus.iew.wb_producers        2222950746                       # num instructions producing a value
system.switch_cpus.iew.wb_consumers        2505245910                       # num instructions consuming a value
system.switch_cpus.iew.wb_penalized                 0                       # number of instrctions required to write to 'other' IQ
system.switch_cpus.iew.wb_rate               1.165035                       # insts written-back per cycle
system.switch_cpus.iew.wb_fanout             0.887318                       # average fanout of values written-back
system.switch_cpus.iew.wb_penalized_rate            0                       # fraction of instructions written-back that wrote to 'other' IQ
system.switch_cpus.commit.commitSquashedInsts   1706371768                       # The number of squashed insts skipped by commit
system.switch_cpus.commit.commitNonSpecStalls         2008                       # The number of times commit has been forced to stall to communicate backwards
system.switch_cpus.commit.branchMispredicts     88081782                       # The number of times a branch was mispredicted
system.switch_cpus.commit.committed_per_cycle::samples   2270453319                       # Number of insts commited each cycle
system.switch_cpus.commit.committed_per_cycle::mean     0.881153                       # Number of insts commited each cycle
system.switch_cpus.commit.committed_per_cycle::stdev     1.681705                       # Number of insts commited each cycle
system.switch_cpus.commit.committed_per_cycle::underflows            0      0.00%      0.00% # Number of insts commited each cycle
system.switch_cpus.commit.committed_per_cycle::0   1443231754     63.57%     63.57% # Number of insts commited each cycle
system.switch_cpus.commit.committed_per_cycle::1    411216487     18.11%     81.68% # Number of insts commited each cycle
system.switch_cpus.commit.committed_per_cycle::2    161094277      7.10%     88.77% # Number of insts commited each cycle
system.switch_cpus.commit.committed_per_cycle::3     44070400      1.94%     90.71% # Number of insts commited each cycle
system.switch_cpus.commit.committed_per_cycle::4    113859902      5.01%     95.73% # Number of insts commited each cycle
system.switch_cpus.commit.committed_per_cycle::5     20564776      0.91%     96.63% # Number of insts commited each cycle
system.switch_cpus.commit.committed_per_cycle::6     12062284      0.53%     97.17% # Number of insts commited each cycle
system.switch_cpus.commit.committed_per_cycle::7     10465064      0.46%     97.63% # Number of insts commited each cycle
system.switch_cpus.commit.committed_per_cycle::8     53888375      2.37%    100.00% # Number of insts commited each cycle
system.switch_cpus.commit.committed_per_cycle::overflows            0      0.00%    100.00% # Number of insts commited each cycle
system.switch_cpus.commit.committed_per_cycle::min_value            0                       # Number of insts commited each cycle
system.switch_cpus.commit.committed_per_cycle::max_value            8                       # Number of insts commited each cycle
system.switch_cpus.commit.committed_per_cycle::total   2270453319                       # Number of insts commited each cycle
system.switch_cpus.commit.committedInsts   2000615881                       # Number of instructions committed
system.switch_cpus.commit.committedOps     2000615881                       # Number of ops (including micro ops) committed
system.switch_cpus.commit.swp_count                 0                       # Number of s/w prefetches committed
system.switch_cpus.commit.refs              623181967                       # Number of memory references committed
system.switch_cpus.commit.loads             548439160                       # Number of loads committed
system.switch_cpus.commit.membars                1004                       # Number of memory barriers committed
system.switch_cpus.commit.branches          341822021                       # Number of branches committed
system.switch_cpus.commit.fp_insts              42528                       # Number of committed floating point instructions.
system.switch_cpus.commit.int_insts        1999856071                       # Number of committed integer instructions.
system.switch_cpus.commit.function_calls       208059                       # Number of function calls committed.
system.switch_cpus.commit.bw_lim_events      53888375                       # number cycles where commit BW limit reached
system.switch_cpus.commit.bw_limited                0                       # number of insts not committed due to BW limits
system.switch_cpus.rob.rob_reads           5905035445                       # The number of ROB reads
system.switch_cpus.rob.rob_writes          7674084896                       # The number of ROB writes
system.switch_cpus.timesIdled                      26                       # Number of times that the entire CPU went into an idle state and unscheduled itself
system.switch_cpus.idleCycles                    3590                       # Total number of cycles that the CPU has spent unscheduled due to idling
system.switch_cpus.committedInsts          2000000007                       # Number of Instructions Simulated
system.switch_cpus.committedOps            2000000007                       # Number of Ops (including micro ops) Simulated
system.switch_cpus.committedInsts_total    2000000007                       # Number of Instructions Simulated
system.switch_cpus.cpi                       1.263339                       # CPI: Cycles Per Instruction
system.switch_cpus.cpi_total                 1.263339                       # CPI: Total CPI of All Threads
system.switch_cpus.ipc                       0.791553                       # IPC: Instructions Per Cycle
system.switch_cpus.ipc_total                 0.791553                       # IPC: Total IPC of All Threads
system.switch_cpus.int_regfile_reads       4448871167                       # number of integer regfile reads
system.switch_cpus.int_regfile_writes      2428421640                       # number of integer regfile writes
system.switch_cpus.fp_regfile_reads             42017                       # number of floating regfile reads
system.switch_cpus.fp_regfile_writes            41737                       # number of floating regfile writes
system.switch_cpus.misc_regfile_reads            2259                       # number of misc regfile reads
system.switch_cpus.misc_regfile_writes           2008                       # number of misc regfile writes
system.l2.tags.numFaultyBlocks_VDD1              1253                       # number of faulty blocks in the cache at VDD1 (lowest)
system.l2.tags.numFaultyBlocks_VDD2              1141                       # number of faulty blocks in the cache at VDD2 (mid)
system.l2.tags.numFaultyBlocks_VDD3                 0                       # number of faulty blocks in the cache at VDD3 (highest)
system.l2.tags.blockFaultRate_VDD1           0.009560                       # Proportion of faulty blocks in the cache at VDD1
system.l2.tags.blockFaultRate_VDD2           0.008705                       # Proportion of faulty blocks in the cache at VDD2
system.l2.tags.blockFaultRate_VDD3                  0                       # Proportion of faulty blocks in the cache at VDD3
system.l2.tags.cycles_VDD1                          0                       # Total number of cycles spent on VDD1
system.l2.tags.cycles_VDD2                 3527343182                       # Total number of cycles spent on VDD2
system.l2.tags.cycles_VDD3                          0                       # Total number of cycles spent on VDD3
system.l2.tags.accessEnergy_VDD1                    0                       # Total dynamic energy dissipated at VDD1 in nJ
system.l2.tags.accessEnergy_VDD2         2965998.672024                       # Total dynamic energy dissipated at VDD2 in nJ
system.l2.tags.accessEnergy_VDD3                    0                       # Total dynamic energy dissipated at VDD3 in nJ
system.l2.tags.accessEnergy_tot          2965998.672024                       # Total dynamic energy dissipated in nJ
system.l2.tags.transitionsTo_VDD1                   0                       # Total number of transitions to VDD1
system.l2.tags.transitionsTo_VDD2                   0                       # Total number of transitions to VDD2
system.l2.tags.transitionsTo_VDD3                   0                       # Total number of transitions to VDD3
system.l2.tags.avgConsecutiveCycles_VDD1          nan                       # Average number of consecutive cycles spent at VDD1
system.l2.tags.avgConsecutiveCycles_VDD2          inf                       # Average number of consecutive cycles spent at VDD2
system.l2.tags.avgConsecutiveCycles_VDD3          nan                       # Average number of consecutive cycles spent at VDD3
system.l2.tags.proportionExecTime_VDD1              0                       # Proportion of total execution time that was spent at VDD1 for this cache
system.l2.tags.proportionExecTime_VDD2              1                       # Proportion of total execution time that was spent at VDD2 for this cache
system.l2.tags.proportionExecTime_VDD3              0                       # Proportion of total execution time that was spent at VDD3 for this cache
system.l2.tags.staticPower_avg            8751.172680                       # Average static power of this cache over the entire execution
system.l2.tags.numUnchangedFaultyTo_VDD1            0                       # Total number of unchanged (faulty) blocks during DPCS transition to VDD1
system.l2.tags.numUnchangedFaultyTo_VDD2            0                       # Total number of unchanged (faulty) blocks during DPCS transition to VDD2
system.l2.tags.numUnchangedFaultyTo_VDD3            0                       # Total number of unchanged (faulty) blocks during DPCS transition to VDD3
system.l2.tags.numFaultyWriteBacksTo_VDD1            0                       # Total number of faulty writebacks during DPCS transition to VDD1
system.l2.tags.numFaultyWriteBacksTo_VDD2            0                       # Total number of faulty writebacks during DPCS transition to VDD2
system.l2.tags.numFaultyWriteBacksTo_VDD3            0                       # Total number of faulty writebacks during DPCS transition to VDD3
system.l2.tags.numInvalidateOnlyTo_VDD1             0                       # Total number of blocks only invalidated during DPCS transition to VDD1
system.l2.tags.numInvalidateOnlyTo_VDD2             0                       # Total number of blocks only invalidated during DPCS transition to VDD2
system.l2.tags.numInvalidateOnlyTo_VDD3             0                       # Total number of blocks only invalidated during DPCS transition to VDD3
system.l2.tags.numMadeAvailableTo_VDD1              0                       # Total number of blocks made available (faulty to non-faulty) during DPCS transition to VDD1
system.l2.tags.numMadeAvailableTo_VDD2              0                       # Total number of blocks made available (faulty to non-faulty) during DPCS transition to VDD2
system.l2.tags.numMadeAvailableTo_VDD3              0                       # Total number of blocks made available (faulty to non-faulty) during DPCS transition to VDD3
system.l2.tags.numUnchangedNotFaultyTo_VDD1            0                       # Total number of blocks unchanged (not faulty) during DPCS transition to VDD1
system.l2.tags.numUnchangedNotFaultyTo_VDD2            0                       # Total number of blocks unchanged (not faulty) during DPCS transition to VDD2
system.l2.tags.numUnchangedNotFaultyTo_VDD3            0                       # Total number of blocks unchanged (not faulty) during DPCS transition to VDD3
system.l2.tags.faultyWriteBackRateTo_VDD1          nan                       # Average number of writebacks caused by faulty blocks when changing to VDD1
system.l2.tags.faultyWriteBackRateTo_VDD2          nan                       # Average number of writebacks caused by faulty blocks when changing to VDD2
system.l2.tags.faultyWriteBackRateTo_VDD3          nan                       # Average number of writebacks caused by faulty blocks when changing to VDD3
system.l2.tags.replacements                      1424                       # number of replacements
system.l2.tags.tagsinuse                 129895.997198                       # Cycle average of tags in use
system.l2.tags.total_refs                    13633738                       # Total number of references to valid blocks.
system.l2.tags.sampled_refs                    131306                       # Sample count of references to valid blocks.
system.l2.tags.avg_refs                    103.831797                       # Average number of references to valid blocks.
system.l2.tags.warmup_cycle                         0                       # Cycle when the warmup percentage was hit.
system.l2.tags.occ_blocks::writebacks    79881.922581                       # Average occupied blocks per requestor
system.l2.tags.occ_blocks::switch_cpus.inst    11.283506                       # Average occupied blocks per requestor
system.l2.tags.occ_blocks::switch_cpus.data    53.726551                       # Average occupied blocks per requestor
system.l2.tags.occ_blocks::cpu.inst                73                       # Average occupied blocks per requestor
system.l2.tags.occ_blocks::cpu.data      49876.064560                       # Average occupied blocks per requestor
system.l2.tags.occ_percent::writebacks       0.609451                       # Average percentage of cache occupancy
system.l2.tags.occ_percent::switch_cpus.inst     0.000086                       # Average percentage of cache occupancy
system.l2.tags.occ_percent::switch_cpus.data     0.000410                       # Average percentage of cache occupancy
system.l2.tags.occ_percent::cpu.inst         0.000557                       # Average percentage of cache occupancy
system.l2.tags.occ_percent::cpu.data         0.380524                       # Average percentage of cache occupancy
system.l2.tags.occ_percent::total            0.991028                       # Average percentage of cache occupancy
system.l2.ReadReq_hits::switch_cpus.data      5219361                       # number of ReadReq hits
system.l2.ReadReq_hits::total                 5219361                       # number of ReadReq hits
system.l2.Writeback_hits::writebacks          3589709                       # number of Writeback hits
system.l2.Writeback_hits::total               3589709                       # number of Writeback hits
system.l2.ReadExReq_hits::switch_cpus.data        16885                       # number of ReadExReq hits
system.l2.ReadExReq_hits::total                 16885                       # number of ReadExReq hits
system.l2.demand_hits::switch_cpus.data       5236246                       # number of demand (read+write) hits
system.l2.demand_hits::total                  5236246                       # number of demand (read+write) hits
system.l2.overall_hits::switch_cpus.data      5236246                       # number of overall hits
system.l2.overall_hits::total                 5236246                       # number of overall hits
system.l2.ReadReq_misses::switch_cpus.inst           12                       # number of ReadReq misses
system.l2.ReadReq_misses::switch_cpus.data          106                       # number of ReadReq misses
system.l2.ReadReq_misses::total                   118                       # number of ReadReq misses
system.l2.ReadExReq_misses::switch_cpus.data         1304                       # number of ReadExReq misses
system.l2.ReadExReq_misses::total                1304                       # number of ReadExReq misses
system.l2.demand_misses::switch_cpus.inst           12                       # number of demand (read+write) misses
system.l2.demand_misses::switch_cpus.data         1410                       # number of demand (read+write) misses
system.l2.demand_misses::total                   1422                       # number of demand (read+write) misses
system.l2.overall_misses::switch_cpus.inst           12                       # number of overall misses
system.l2.overall_misses::switch_cpus.data         1410                       # number of overall misses
system.l2.overall_misses::total                  1422                       # number of overall misses
system.l2.ReadReq_miss_latency::switch_cpus.inst       803172                       # number of ReadReq miss cycles
system.l2.ReadReq_miss_latency::switch_cpus.data      9611582                       # number of ReadReq miss cycles
system.l2.ReadReq_miss_latency::total        10414754                       # number of ReadReq miss cycles
system.l2.ReadExReq_miss_latency::switch_cpus.data     94156209                       # number of ReadExReq miss cycles
system.l2.ReadExReq_miss_latency::total      94156209                       # number of ReadExReq miss cycles
system.l2.demand_miss_latency::switch_cpus.inst       803172                       # number of demand (read+write) miss cycles
system.l2.demand_miss_latency::switch_cpus.data    103767791                       # number of demand (read+write) miss cycles
system.l2.demand_miss_latency::total        104570963                       # number of demand (read+write) miss cycles
system.l2.overall_miss_latency::switch_cpus.inst       803172                       # number of overall miss cycles
system.l2.overall_miss_latency::switch_cpus.data    103767791                       # number of overall miss cycles
system.l2.overall_miss_latency::total       104570963                       # number of overall miss cycles
system.l2.ReadReq_accesses::switch_cpus.inst           12                       # number of ReadReq accesses(hits+misses)
system.l2.ReadReq_accesses::switch_cpus.data      5219467                       # number of ReadReq accesses(hits+misses)
system.l2.ReadReq_accesses::total             5219479                       # number of ReadReq accesses(hits+misses)
system.l2.Writeback_accesses::writebacks      3589709                       # number of Writeback accesses(hits+misses)
system.l2.Writeback_accesses::total           3589709                       # number of Writeback accesses(hits+misses)
system.l2.ReadExReq_accesses::switch_cpus.data        18189                       # number of ReadExReq accesses(hits+misses)
system.l2.ReadExReq_accesses::total             18189                       # number of ReadExReq accesses(hits+misses)
system.l2.demand_accesses::switch_cpus.inst           12                       # number of demand (read+write) accesses
system.l2.demand_accesses::switch_cpus.data      5237656                       # number of demand (read+write) accesses
system.l2.demand_accesses::total              5237668                       # number of demand (read+write) accesses
system.l2.overall_accesses::switch_cpus.inst           12                       # number of overall (read+write) accesses
system.l2.overall_accesses::switch_cpus.data      5237656                       # number of overall (read+write) accesses
system.l2.overall_accesses::total             5237668                       # number of overall (read+write) accesses
system.l2.ReadReq_miss_rate::switch_cpus.inst            1                       # miss rate for ReadReq accesses
system.l2.ReadReq_miss_rate::switch_cpus.data     0.000020                       # miss rate for ReadReq accesses
system.l2.ReadReq_miss_rate::total           0.000023                       # miss rate for ReadReq accesses
system.l2.ReadExReq_miss_rate::switch_cpus.data     0.071692                       # miss rate for ReadExReq accesses
system.l2.ReadExReq_miss_rate::total         0.071692                       # miss rate for ReadExReq accesses
system.l2.demand_miss_rate::switch_cpus.inst            1                       # miss rate for demand accesses
system.l2.demand_miss_rate::switch_cpus.data     0.000269                       # miss rate for demand accesses
system.l2.demand_miss_rate::total            0.000271                       # miss rate for demand accesses
system.l2.overall_miss_rate::switch_cpus.inst            1                       # miss rate for overall accesses
system.l2.overall_miss_rate::switch_cpus.data     0.000269                       # miss rate for overall accesses
system.l2.overall_miss_rate::total           0.000271                       # miss rate for overall accesses
system.l2.ReadReq_avg_miss_latency::switch_cpus.inst        66931                       # average ReadReq miss latency
system.l2.ReadReq_avg_miss_latency::switch_cpus.data 90675.301887                       # average ReadReq miss latency
system.l2.ReadReq_avg_miss_latency::total 88260.627119                       # average ReadReq miss latency
system.l2.ReadExReq_avg_miss_latency::switch_cpus.data 72205.681748                       # average ReadExReq miss latency
system.l2.ReadExReq_avg_miss_latency::total 72205.681748                       # average ReadExReq miss latency
system.l2.demand_avg_miss_latency::switch_cpus.inst        66931                       # average overall miss latency
system.l2.demand_avg_miss_latency::switch_cpus.data 73594.178014                       # average overall miss latency
system.l2.demand_avg_miss_latency::total 73537.948664                       # average overall miss latency
system.l2.overall_avg_miss_latency::switch_cpus.inst        66931                       # average overall miss latency
system.l2.overall_avg_miss_latency::switch_cpus.data 73594.178014                       # average overall miss latency
system.l2.overall_avg_miss_latency::total 73537.948664                       # average overall miss latency
system.l2.blocked_cycles::no_mshrs                  0                       # number of cycles access was blocked
system.l2.blocked_cycles::no_targets                0                       # number of cycles access was blocked
system.l2.blocked::no_mshrs                         0                       # number of cycles access was blocked
system.l2.blocked::no_targets                       0                       # number of cycles access was blocked
system.l2.avg_blocked_cycles::no_mshrs            nan                       # average number of cycles each access was blocked
system.l2.avg_blocked_cycles::no_targets          nan                       # average number of cycles each access was blocked
system.l2.fast_writes                               0                       # number of fast writes performed
system.l2.cache_copies                              0                       # number of cache copies performed
system.l2.writebacks::writebacks                 1399                       # number of writebacks
system.l2.writebacks::total                      1399                       # number of writebacks
system.l2.ReadReq_mshr_misses::switch_cpus.inst           12                       # number of ReadReq MSHR misses
system.l2.ReadReq_mshr_misses::switch_cpus.data          106                       # number of ReadReq MSHR misses
system.l2.ReadReq_mshr_misses::total              118                       # number of ReadReq MSHR misses
system.l2.ReadExReq_mshr_misses::switch_cpus.data         1304                       # number of ReadExReq MSHR misses
system.l2.ReadExReq_mshr_misses::total           1304                       # number of ReadExReq MSHR misses
system.l2.demand_mshr_misses::switch_cpus.inst           12                       # number of demand (read+write) MSHR misses
system.l2.demand_mshr_misses::switch_cpus.data         1410                       # number of demand (read+write) MSHR misses
system.l2.demand_mshr_misses::total              1422                       # number of demand (read+write) MSHR misses
system.l2.overall_mshr_misses::switch_cpus.inst           12                       # number of overall MSHR misses
system.l2.overall_mshr_misses::switch_cpus.data         1410                       # number of overall MSHR misses
system.l2.overall_mshr_misses::total             1422                       # number of overall MSHR misses
system.l2.ReadReq_mshr_miss_latency::switch_cpus.inst       713310                       # number of ReadReq MSHR miss cycles
system.l2.ReadReq_mshr_miss_latency::switch_cpus.data      8820634                       # number of ReadReq MSHR miss cycles
system.l2.ReadReq_mshr_miss_latency::total      9533944                       # number of ReadReq MSHR miss cycles
system.l2.ReadExReq_mshr_miss_latency::switch_cpus.data     84095361                       # number of ReadExReq MSHR miss cycles
system.l2.ReadExReq_mshr_miss_latency::total     84095361                       # number of ReadExReq MSHR miss cycles
system.l2.demand_mshr_miss_latency::switch_cpus.inst       713310                       # number of demand (read+write) MSHR miss cycles
system.l2.demand_mshr_miss_latency::switch_cpus.data     92915995                       # number of demand (read+write) MSHR miss cycles
system.l2.demand_mshr_miss_latency::total     93629305                       # number of demand (read+write) MSHR miss cycles
[...]
system.cpu.dcache.tags.proportionExecTime_VDD1            0                       # Proportion of total execution time that was spent at VDD1 for this cache
system.cpu.dcache.tags.proportionExecTime_VDD2            1                       # Proportion of total execution time that was spent at VDD2 for this cache
system.cpu.dcache.tags.proportionExecTime_VDD3            0                       # Proportion of total execution time that was spent at VDD3 for this cache
system.cpu.dcache.tags.staticPower_avg     333.713930                       # Average static power of this cache over the entire execution
system.cpu.dcache.tags.numUnchangedFaultyTo_VDD1            0                       # Total number of unchanged (faulty) blocks during DPCS transition to VDD1
system.cpu.dcache.tags.numUnchangedFaultyTo_VDD2            0                       # Total number of unchanged (faulty) blocks during DPCS transition to VDD2
system.cpu.dcache.tags.numUnchangedFaultyTo_VDD3            0                       # Total number of unchanged (faulty) blocks during DPCS transition to VDD3
system.cpu.dcache.tags.numFaultyWriteBacksTo_VDD1            0                       # Total number of faulty writebacks during DPCS transition to VDD1
system.cpu.dcache.tags.numFaultyWriteBacksTo_VDD2            0                       # Total number of faulty writebacks during DPCS transition to VDD2
system.cpu.dcache.tags.numFaultyWriteBacksTo_VDD3            0                       # Total number of faulty writebacks during DPCS transition to VDD3
system.cpu.dcache.tags.numInvalidateOnlyTo_VDD1            0                       # Total number of blocks only invalidated during DPCS transition to VDD1
system.cpu.dcache.tags.numInvalidateOnlyTo_VDD2            0                       # Total number of blocks only invalidated during DPCS transition to VDD2
system.cpu.dcache.tags.numInvalidateOnlyTo_VDD3            0                       # Total number of blocks only invalidated during DPCS transition to VDD3
system.cpu.dcache.tags.numMadeAvailableTo_VDD1            0                       # Total number of blocks made available (faulty to non-faulty) during DPCS transition to VDD1
system.cpu.dcache.tags.numMadeAvailableTo_VDD2            0                       # Total number of blocks made available (faulty to non-faulty) during DPCS transition to VDD2
system.cpu.dcache.tags.numMadeAvailableTo_VDD3            0                       # Total number of blocks made available (faulty to non-faulty) during DPCS transition to VDD3
system.cpu.dcache.tags.numUnchangedNotFaultyTo_VDD1            0                       # Total number of blocks unchanged (not faulty) during DPCS transition to VDD1
system.cpu.dcache.tags.numUnchangedNotFaultyTo_VDD2            0                       # Total number of blocks unchanged (not faulty) during DPCS transition to VDD2
system.cpu.dcache.tags.numUnchangedNotFaultyTo_VDD3            0                       # Total number of blocks unchanged (not faulty) during DPCS transition to VDD3
system.cpu.dcache.tags.faultyWriteBackRateTo_VDD1          nan                       # Average number of writebacks caused by faulty blocks when changing to VDD1
system.cpu.dcache.tags.faultyWriteBackRateTo_VDD2          nan                       # Average number of writebacks caused by faulty blocks when changing to VDD2
system.cpu.dcache.tags.faultyWriteBackRateTo_VDD3          nan                       # Average number of writebacks caused by faulty blocks when changing to VDD3
system.cpu.dcache.tags.replacements           5237656                       # number of replacements
system.cpu.dcache.tags.tagsinuse                 4057                       # Cycle average of tags in use
system.cpu.dcache.tags.total_refs          1008607166                       # Total number of references to valid blocks.
system.cpu.dcache.tags.sampled_refs           5241713                       # Sample count of references to valid blocks.
system.cpu.dcache.tags.avg_refs            192.419380                       # Average number of references to valid blocks.
system.cpu.dcache.tags.warmup_cycle                 0                       # Cycle when the warmup percentage was hit.
system.cpu.dcache.tags.occ_blocks::switch_cpus.data  4051.779220                       # Average occupied blocks per requestor
system.cpu.dcache.tags.occ_blocks::cpu.data     5.220780                       # Average occupied blocks per requestor
system.cpu.dcache.tags.occ_percent::switch_cpus.data     0.989204                       # Average percentage of cache occupancy
system.cpu.dcache.tags.occ_percent::cpu.data     0.001275                       # Average percentage of cache occupancy
system.cpu.dcache.tags.occ_percent::total     0.990479                       # Average percentage of cache occupancy
system.cpu.dcache.ReadReq_hits::switch_cpus.data    871261380                       # number of ReadReq hits
system.cpu.dcache.ReadReq_hits::total       871261380                       # number of ReadReq hits
system.cpu.dcache.WriteReq_hits::switch_cpus.data     74709464                       # number of WriteReq hits
system.cpu.dcache.WriteReq_hits::total       74709464                       # number of WriteReq hits
system.cpu.dcache.LoadLockedReq_hits::switch_cpus.data          821                       # number of LoadLockedReq hits
system.cpu.dcache.LoadLockedReq_hits::total          821                       # number of LoadLockedReq hits
system.cpu.dcache.StoreCondReq_hits::switch_cpus.data         1004                       # number of StoreCondReq hits
system.cpu.dcache.StoreCondReq_hits::total         1004                       # number of StoreCondReq hits
system.cpu.dcache.demand_hits::switch_cpus.data    945970844                       # number of demand (read+write) hits
system.cpu.dcache.demand_hits::total        945970844                       # number of demand (read+write) hits
system.cpu.dcache.overall_hits::switch_cpus.data    945970844                       # number of overall hits
system.cpu.dcache.overall_hits::total       945970844                       # number of overall hits
system.cpu.dcache.ReadReq_misses::switch_cpus.data      7988212                       # number of ReadReq misses
system.cpu.dcache.ReadReq_misses::total       7988212                       # number of ReadReq misses
system.cpu.dcache.WriteReq_misses::switch_cpus.data        32338                       # number of WriteReq misses
system.cpu.dcache.WriteReq_misses::total        32338                       # number of WriteReq misses
system.cpu.dcache.LoadLockedReq_misses::switch_cpus.data          202                       # number of LoadLockedReq misses
system.cpu.dcache.LoadLockedReq_misses::total          202                       # number of LoadLockedReq misses
system.cpu.dcache.demand_misses::switch_cpus.data      8020550                       # number of demand (read+write) misses
system.cpu.dcache.demand_misses::total        8020550                       # number of demand (read+write) misses
system.cpu.dcache.overall_misses::switch_cpus.data      8020550                       # number of overall misses
system.cpu.dcache.overall_misses::total       8020550                       # number of overall misses
system.cpu.dcache.ReadReq_miss_latency::switch_cpus.data  37418315012                       # number of ReadReq miss cycles
system.cpu.dcache.ReadReq_miss_latency::total  37418315012                       # number of ReadReq miss cycles
system.cpu.dcache.WriteReq_miss_latency::switch_cpus.data    751332646                       # number of WriteReq miss cycles
system.cpu.dcache.WriteReq_miss_latency::total    751332646                       # number of WriteReq miss cycles
system.cpu.dcache.LoadLockedReq_miss_latency::switch_cpus.data      1008990                       # number of LoadLockedReq miss cycles
system.cpu.dcache.LoadLockedReq_miss_latency::total      1008990                       # number of LoadLockedReq miss cycles
system.cpu.dcache.demand_miss_latency::switch_cpus.data  38169647658                       # number of demand (read+write) miss cycles
system.cpu.dcache.demand_miss_latency::total  38169647658                       # number of demand (read+write) miss cycles
system.cpu.dcache.overall_miss_latency::switch_cpus.data  38169647658                       # number of overall miss cycles
system.cpu.dcache.overall_miss_latency::total  38169647658                       # number of overall miss cycles
system.cpu.dcache.ReadReq_accesses::switch_cpus.data    879249592                       # number of ReadReq accesses(hits+misses)
system.cpu.dcache.ReadReq_accesses::total    879249592                       # number of ReadReq accesses(hits+misses)
system.cpu.dcache.WriteReq_accesses::switch_cpus.data     74741802                       # number of WriteReq accesses(hits+misses)
system.cpu.dcache.WriteReq_accesses::total     74741802                       # number of WriteReq accesses(hits+misses)
system.cpu.dcache.LoadLockedReq_accesses::switch_cpus.data         1023                       # number of LoadLockedReq accesses(hits+misses)
system.cpu.dcache.LoadLockedReq_accesses::total         1023                       # number of LoadLockedReq accesses(hits+misses)
system.cpu.dcache.StoreCondReq_accesses::switch_cpus.data         1004                       # number of StoreCondReq accesses(hits+misses)
system.cpu.dcache.StoreCondReq_accesses::total         1004                       # number of StoreCondReq accesses(hits+misses)
system.cpu.dcache.demand_accesses::switch_cpus.data    953991394                       # number of demand (read+write) accesses
system.cpu.dcache.demand_accesses::total    953991394                       # number of demand (read+write) accesses
system.cpu.dcache.overall_accesses::switch_cpus.data    953991394                       # number of overall (read+write) accesses
system.cpu.dcache.overall_accesses::total    953991394                       # number of overall (read+write) accesses
system.cpu.dcache.ReadReq_miss_rate::switch_cpus.data     0.009085                       # miss rate for ReadReq accesses
system.cpu.dcache.ReadReq_miss_rate::total     0.009085                       # miss rate for ReadReq accesses
system.cpu.dcache.WriteReq_miss_rate::switch_cpus.data     0.000433                       # miss rate for WriteReq accesses
system.cpu.dcache.WriteReq_miss_rate::total     0.000433                       # miss rate for WriteReq accesses
system.cpu.dcache.LoadLockedReq_miss_rate::switch_cpus.data     0.197458                       # miss rate for LoadLockedReq accesses
system.cpu.dcache.LoadLockedReq_miss_rate::total     0.197458                       # miss rate for LoadLockedReq accesses
system.cpu.dcache.demand_miss_rate::switch_cpus.data     0.008407                       # miss rate for demand accesses
system.cpu.dcache.demand_miss_rate::total     0.008407                       # miss rate for demand accesses
system.cpu.dcache.overall_miss_rate::switch_cpus.data     0.008407                       # miss rate for overall accesses
system.cpu.dcache.overall_miss_rate::total     0.008407                       # miss rate for overall accesses
system.cpu.dcache.ReadReq_avg_miss_latency::switch_cpus.data  4684.191533                       # average ReadReq miss latency
system.cpu.dcache.ReadReq_avg_miss_latency::total  4684.191533                       # average ReadReq miss latency
system.cpu.dcache.WriteReq_avg_miss_latency::switch_cpus.data 23233.738821                       # average WriteReq miss latency
system.cpu.dcache.WriteReq_avg_miss_latency::total 23233.738821                       # average WriteReq miss latency
system.cpu.dcache.LoadLockedReq_avg_miss_latency::switch_cpus.data         4995                       # average LoadLockedReq miss latency
system.cpu.dcache.LoadLockedReq_avg_miss_latency::total         4995                       # average LoadLockedReq miss latency
system.cpu.dcache.demand_avg_miss_latency::switch_cpus.data  4758.981324                       # average overall miss latency
system.cpu.dcache.demand_avg_miss_latency::total  4758.981324                       # average overall miss latency
system.cpu.dcache.overall_avg_miss_latency::switch_cpus.data  4758.981324                       # average overall miss latency
system.cpu.dcache.overall_avg_miss_latency::total  4758.981324                       # average overall miss latency
system.cpu.dcache.blocked_cycles::no_mshrs        11314                       # number of cycles access was blocked
system.cpu.dcache.blocked_cycles::no_targets        41340                       # number of cycles access was blocked
system.cpu.dcache.blocked::no_mshrs              4426                       # number of cycles access was blocked
system.cpu.dcache.blocked::no_targets              31                       # number of cycles access was blocked
system.cpu.dcache.avg_blocked_cycles::no_mshrs     2.556258                       # average number of cycles each access was blocked
system.cpu.dcache.avg_blocked_cycles::no_targets  1333.548387                       # average number of cycles each access was blocked
system.cpu.dcache.fast_writes                       0                       # number of fast writes performed
system.cpu.dcache.cache_copies                      0                       # number of cache copies performed
system.cpu.dcache.writebacks::writebacks      3589709                       # number of writebacks
system.cpu.dcache.writebacks::total           3589709                       # number of writebacks
system.cpu.dcache.ReadReq_mshr_hits::switch_cpus.data      2768937                       # number of ReadReq MSHR hits
system.cpu.dcache.ReadReq_mshr_hits::total      2768937                       # number of ReadReq MSHR hits
system.cpu.dcache.WriteReq_mshr_hits::switch_cpus.data        14159                       # number of WriteReq MSHR hits
system.cpu.dcache.WriteReq_mshr_hits::total        14159                       # number of WriteReq MSHR hits
system.cpu.dcache.demand_mshr_hits::switch_cpus.data      2783096                       # number of demand (read+write) MSHR hits
system.cpu.dcache.demand_mshr_hits::total      2783096                       # number of demand (read+write) MSHR hits
system.cpu.dcache.overall_mshr_hits::switch_cpus.data      2783096                       # number of overall MSHR hits
system.cpu.dcache.overall_mshr_hits::total      2783096                       # number of overall MSHR hits
system.cpu.dcache.ReadReq_mshr_misses::switch_cpus.data      5219275                       # number of ReadReq MSHR misses
system.cpu.dcache.ReadReq_mshr_misses::total      5219275                       # number of ReadReq MSHR misses
system.cpu.dcache.WriteReq_mshr_misses::switch_cpus.data        18179                       # number of WriteReq MSHR misses
system.cpu.dcache.WriteReq_mshr_misses::total        18179                       # number of WriteReq MSHR misses
system.cpu.dcache.LoadLockedReq_mshr_misses::switch_cpus.data          202                       # number of LoadLockedReq MSHR misses
system.cpu.dcache.LoadLockedReq_mshr_misses::total          202                       # number of LoadLockedReq MSHR misses
system.cpu.dcache.demand_mshr_misses::switch_cpus.data      5237454                       # number of demand (read+write) MSHR misses
system.cpu.dcache.demand_mshr_misses::total      5237454                       # number of demand (read+write) MSHR misses
system.cpu.dcache.overall_mshr_misses::switch_cpus.data      5237454                       # number of overall MSHR misses
system.cpu.dcache.overall_mshr_misses::total      5237454                       # number of overall MSHR misses
system.cpu.dcache.ReadReq_mshr_miss_latency::switch_cpus.data  19225454942                       # number of ReadReq MSHR miss cycles
system.cpu.dcache.ReadReq_mshr_miss_latency::total  19225454942                       # number of ReadReq MSHR miss cycles
system.cpu.dcache.WriteReq_mshr_miss_latency::switch_cpus.data    157871061                       # number of WriteReq MSHR miss cycles
system.cpu.dcache.WriteReq_mshr_miss_latency::total    157871061                       # number of WriteReq MSHR miss cycles
system.cpu.dcache.LoadLockedReq_mshr_miss_latency::switch_cpus.data       739926                       # number of LoadLockedReq MSHR miss cycles
system.cpu.dcache.LoadLockedReq_mshr_miss_latency::total       739926                       # number of LoadLockedReq MSHR miss cycles
system.cpu.dcache.demand_mshr_miss_latency::switch_cpus.data  19383326003                       # number of demand (read+write) MSHR miss cycles
system.cpu.dcache.demand_mshr_miss_latency::total  19383326003                       # number of demand (read+write) MSHR miss cycles
system.cpu.dcache.overall_mshr_miss_latency::switch_cpus.data  19383326003                       # number of overall MSHR miss cycles
system.cpu.dcache.overall_mshr_miss_latency::total  19383326003                       # number of overall MSHR miss cycles
system.cpu.dcache.ReadReq_mshr_miss_rate::switch_cpus.data     0.005936                       # mshr miss rate for ReadReq accesses
system.cpu.dcache.ReadReq_mshr_miss_rate::total     0.005936                       # mshr miss rate for ReadReq accesses
system.cpu.dcache.WriteReq_mshr_miss_rate::switch_cpus.data     0.000243                       # mshr miss rate for WriteReq accesses
system.cpu.dcache.WriteReq_mshr_miss_rate::total     0.000243                       # mshr miss rate for WriteReq accesses
system.cpu.dcache.LoadLockedReq_mshr_miss_rate::switch_cpus.data     0.197458                       # mshr miss rate for LoadLockedReq accesses
system.cpu.dcache.LoadLockedReq_mshr_miss_rate::total     0.197458                       # mshr miss rate for LoadLockedReq accesses
system.cpu.dcache.demand_mshr_miss_rate::switch_cpus.data     0.005490                       # mshr miss rate for demand accesses
system.cpu.dcache.demand_mshr_miss_rate::total     0.005490                       # mshr miss rate for demand accesses
system.cpu.dcache.overall_mshr_miss_rate::switch_cpus.data     0.005490                       # mshr miss rate for overall accesses
system.cpu.dcache.overall_mshr_miss_rate::total     0.005490                       # mshr miss rate for overall accesses
system.cpu.dcache.ReadReq_avg_mshr_miss_latency::switch_cpus.data  3683.548949                       # average ReadReq mshr miss latency
system.cpu.dcache.ReadReq_avg_mshr_miss_latency::total  3683.548949                       # average ReadReq mshr miss latency
system.cpu.dcache.WriteReq_avg_mshr_miss_latency::switch_cpus.data  8684.254414                       # average WriteReq mshr miss latency
system.cpu.dcache.WriteReq_avg_mshr_miss_latency::total  8684.254414                       # average WriteReq mshr miss latency
system.cpu.dcache.LoadLockedReq_avg_mshr_miss_latency::switch_cpus.data         3663                       # average LoadLockedReq mshr miss latency
system.cpu.dcache.LoadLockedReq_avg_mshr_miss_latency::total         3663                       # average LoadLockedReq mshr miss latency
system.cpu.dcache.demand_avg_mshr_miss_latency::switch_cpus.data  3700.906204                       # average overall mshr miss latency
system.cpu.dcache.demand_avg_mshr_miss_latency::total  3700.906204                       # average overall mshr miss latency
system.cpu.dcache.overall_avg_mshr_miss_latency::switch_cpus.data  3700.906204                       # average overall mshr miss latency
system.cpu.dcache.overall_avg_mshr_miss_latency::total  3700.906204                       # average overall mshr miss latency
system.cpu.dcache.no_allocate_misses                0                       # Number of misses that were no-allocate

---------- End Simulation Statistics   ----------
