
---------- Begin Simulation Statistics ----------
sim_seconds                                  0.977699                       # Number of seconds simulated
sim_ticks                                977698635687                       # Number of ticks simulated
final_tick                               1310738367582                       # Number of ticks from beginning of simulation (restored from checkpoints and never reset)
sim_freq                                 1000000000000                       # Frequency of simulated ticks
host_inst_rate                                 200042                       # Simulator instruction rate (inst/s)
host_op_rate                                   200042                       # Simulator op (including micro ops) rate (op/s)
host_tick_rate                               65193720                       # Simulator tick rate (ticks/s)
host_mem_usage                                2358336                       # Number of bytes of host memory used
host_seconds                                 14996.82                       # Real time elapsed on the host
sim_insts                                  3000000001                       # Number of instructions simulated
sim_ops                                    3000000001                       # Number of ops (including micro ops) simulated
system.mem_ctrls.bytes_read::switch_cpus.inst        53888                       # Number of bytes read from this memory
system.mem_ctrls.bytes_read::switch_cpus.data   1474297152                       # Number of bytes read from this memory
system.mem_ctrls.bytes_read::total         1474351040                       # Number of bytes read from this memory
system.mem_ctrls.bytes_inst_read::switch_cpus.inst        53888                       # Number of instructions bytes read from this memory
system.mem_ctrls.bytes_inst_read::total         53888                       # Number of instructions bytes read from this memory
system.mem_ctrls.bytes_written::writebacks    347018368                       # Number of bytes written to this memory
system.mem_ctrls.bytes_written::total       347018368                       # Number of bytes written to this memory
system.mem_ctrls.num_reads::switch_cpus.inst          842                       # Number of read requests responded to by this memory
system.mem_ctrls.num_reads::switch_cpus.data     23035893                       # Number of read requests responded to by this memory
system.mem_ctrls.num_reads::total            23036735                       # Number of read requests responded to by this memory
system.mem_ctrls.num_writes::writebacks       5422162                       # Number of write requests responded to by this memory
system.mem_ctrls.num_writes::total            5422162                       # Number of write requests responded to by this memory
system.mem_ctrls.bw_read::switch_cpus.inst        55117                       # Total read bandwidth from this memory (bytes/s)
system.mem_ctrls.bw_read::switch_cpus.data   1507925958                       # Total read bandwidth from this memory (bytes/s)
system.mem_ctrls.bw_read::total            1507981075                       # Total read bandwidth from this memory (bytes/s)
system.mem_ctrls.bw_inst_read::switch_cpus.inst        55117                       # Instruction read bandwidth from this memory (bytes/s)
system.mem_ctrls.bw_inst_read::total            55117                       # Instruction read bandwidth from this memory (bytes/s)
system.mem_ctrls.bw_write::writebacks       354933878                       # Write bandwidth from this memory (bytes/s)
system.mem_ctrls.bw_write::total            354933878                       # Write bandwidth from this memory (bytes/s)
system.mem_ctrls.bw_total::writebacks       354933878                       # Total bandwidth to/from this memory (bytes/s)
system.mem_ctrls.bw_total::switch_cpus.inst        55117                       # Total bandwidth to/from this memory (bytes/s)
system.mem_ctrls.bw_total::switch_cpus.data   1507925958                       # Total bandwidth to/from this memory (bytes/s)
system.mem_ctrls.bw_total::total           1862914953                       # Total bandwidth to/from this memory (bytes/s)
system.mem_ctrls.readReqs                    23036737                       # Total number of read requests accepted by DRAM controller
system.mem_ctrls.writeReqs                    5422162                       # Total number of write requests accepted by DRAM controller
system.mem_ctrls.readBursts                  23036737                       # Total number of DRAM read bursts. Each DRAM read request translates to either one or multiple DRAM read bursts
system.mem_ctrls.writeBursts                  5422162                       # Total number of DRAM write bursts. Each DRAM write request translates to either one or multiple DRAM write bursts
system.mem_ctrls.bytesRead                 1474351040                       # Total number of bytes read from memory
system.mem_ctrls.bytesWritten               347018368                       # Total number of bytes written to memory
system.mem_ctrls.bytesConsumedRd           1474351040                       # bytesRead derated as per pkt->getSize()
system.mem_ctrls.bytesConsumedWr            347018368                       # bytesWritten derated as per pkt->getSize()
system.mem_ctrls.servicedByWrQ                    251                       # Number of DRAM read bursts serviced by write Q
system.mem_ctrls.neitherReadNorWrite                0                       # Reqs where no action is needed
system.mem_ctrls.perBankRdReqs::0             1440347                       # Track reads on a per bank basis
system.mem_ctrls.perBankRdReqs::1             1439676                       # Track reads on a per bank basis
system.mem_ctrls.perBankRdReqs::2             1440209                       # Track reads on a per bank basis
system.mem_ctrls.perBankRdReqs::3             1440167                       # Track reads on a per bank basis
system.mem_ctrls.perBankRdReqs::4             1440389                       # Track reads on a per bank basis
system.mem_ctrls.perBankRdReqs::5             1439987                       # Track reads on a per bank basis
system.mem_ctrls.perBankRdReqs::6             1440237                       # Track reads on a per bank basis
system.mem_ctrls.perBankRdReqs::7             1439849                       # Track reads on a per bank basis
system.mem_ctrls.perBankRdReqs::8             1439254                       # Track reads on a per bank basis
system.mem_ctrls.perBankRdReqs::9             1439969                       # Track reads on a per bank basis
system.mem_ctrls.perBankRdReqs::10            1439423                       # Track reads on a per bank basis
system.mem_ctrls.perBankRdReqs::11            1439229                       # Track reads on a per bank basis
system.mem_ctrls.perBankRdReqs::12            1439467                       # Track reads on a per bank basis
system.mem_ctrls.perBankRdReqs::13            1439462                       # Track reads on a per bank basis
system.mem_ctrls.perBankRdReqs::14            1439251                       # Track reads on a per bank basis
system.mem_ctrls.perBankRdReqs::15            1439570                       # Track reads on a per bank basis
system.mem_ctrls.perBankWrReqs::0              339027                       # Track writes on a per bank basis
system.mem_ctrls.perBankWrReqs::1              338934                       # Track writes on a per bank basis
system.mem_ctrls.perBankWrReqs::2              339269                       # Track writes on a per bank basis
system.mem_ctrls.perBankWrReqs::3              339262                       # Track writes on a per bank basis
system.mem_ctrls.perBankWrReqs::4              339291                       # Track writes on a per bank basis
system.mem_ctrls.perBankWrReqs::5              339015                       # Track writes on a per bank basis
system.mem_ctrls.perBankWrReqs::6              339068                       # Track writes on a per bank basis
system.mem_ctrls.perBankWrReqs::7              338928                       # Track writes on a per bank basis
system.mem_ctrls.perBankWrReqs::8              338647                       # Track writes on a per bank basis
system.mem_ctrls.perBankWrReqs::9              338757                       # Track writes on a per bank basis
system.mem_ctrls.perBankWrReqs::10             338610                       # Track writes on a per bank basis
system.mem_ctrls.perBankWrReqs::11             338761                       # Track writes on a per bank basis
system.mem_ctrls.perBankWrReqs::12             338663                       # Track writes on a per bank basis
system.mem_ctrls.perBankWrReqs::13             338740                       # Track writes on a per bank basis
system.mem_ctrls.perBankWrReqs::14             338477                       # Track writes on a per bank basis
system.mem_ctrls.perBankWrReqs::15             338707                       # Track writes on a per bank basis
system.mem_ctrls.numRdRetry                         0                       # Number of times rd buffer was full causing retry
system.mem_ctrls.numWrRetry                         0                       # Number of times wr buffer was full causing retry
system.mem_ctrls.totGap                  977698426230                       # Total gap between requests
system.mem_ctrls.readPktSize::0                     0                       # Categorize read packet sizes
system.mem_ctrls.readPktSize::1                     0                       # Categorize read packet sizes
system.mem_ctrls.readPktSize::2                     0                       # Categorize read packet sizes
system.mem_ctrls.readPktSize::3                     0                       # Categorize read packet sizes
system.mem_ctrls.readPktSize::4                     0                       # Categorize read packet sizes
system.mem_ctrls.readPktSize::5                     0                       # Categorize read packet sizes
system.mem_ctrls.readPktSize::6              23036737                       # Categorize read packet sizes
system.mem_ctrls.writePktSize::0                    0                       # Categorize write packet sizes
system.mem_ctrls.writePktSize::1                    0                       # Categorize write packet sizes
system.mem_ctrls.writePktSize::2                    0                       # Categorize write packet sizes
system.mem_ctrls.writePktSize::3                    0                       # Categorize write packet sizes
system.mem_ctrls.writePktSize::4                    0                       # Categorize write packet sizes
system.mem_ctrls.writePktSize::5                    0                       # Categorize write packet sizes
system.mem_ctrls.writePktSize::6              5422162                       # Categorize write packet sizes
system.mem_ctrls.rdQLenPdf::0                14873051                       # What read queue length does an incoming req see
system.mem_ctrls.rdQLenPdf::1                 6000495                       # What read queue length does an incoming req see
system.mem_ctrls.rdQLenPdf::2                 1831460                       # What read queue length does an incoming req see
system.mem_ctrls.rdQLenPdf::3                  331463                       # What read queue length does an incoming req see
system.mem_ctrls.rdQLenPdf::4                      16                       # What read queue length does an incoming req see
system.mem_ctrls.rdQLenPdf::5                       1                       # What read queue length does an incoming req see
system.mem_ctrls.rdQLenPdf::6                       0                       # What read queue length does an incoming req see
system.mem_ctrls.rdQLenPdf::7                       0                       # What read queue length does an incoming req see
system.mem_ctrls.rdQLenPdf::8                       0                       # What read queue length does an incoming req see
system.mem_ctrls.rdQLenPdf::9                       0                       # What read queue length does an incoming req see
system.mem_ctrls.rdQLenPdf::10                      0                       # What read queue length does an incoming req see
system.mem_ctrls.rdQLenPdf::11                      0                       # What read queue length does an incoming req see
system.mem_ctrls.rdQLenPdf::12                      0                       # What read queue length does an incoming req see
system.mem_ctrls.rdQLenPdf::13                      0                       # What read queue length does an incoming req see
system.mem_ctrls.rdQLenPdf::14                      0                       # What read queue length does an incoming req see
system.mem_ctrls.rdQLenPdf::15                      0                       # What read queue length does an incoming req see
system.mem_ctrls.rdQLenPdf::16                      0                       # What read queue length does an incoming req see
system.mem_ctrls.rdQLenPdf::17                      0                       # What read queue length does an incoming req see
system.mem_ctrls.rdQLenPdf::18                      0                       # What read queue length does an incoming req see
system.mem_ctrls.rdQLenPdf::19                      0                       # What read queue length does an incoming req see
system.mem_ctrls.rdQLenPdf::20                      0                       # What read queue length does an incoming req see
system.mem_ctrls.rdQLenPdf::21                      0                       # What read queue length does an incoming req see
system.mem_ctrls.rdQLenPdf::22                      0                       # What read queue length does an incoming req see
system.mem_ctrls.rdQLenPdf::23                      0                       # What read queue length does an incoming req see
system.mem_ctrls.rdQLenPdf::24                      0                       # What read queue length does an incoming req see
system.mem_ctrls.rdQLenPdf::25                      0                       # What read queue length does an incoming req see
system.mem_ctrls.rdQLenPdf::26                      0                       # What read queue length does an incoming req see
system.mem_ctrls.rdQLenPdf::27                      0                       # What read queue length does an incoming req see
system.mem_ctrls.rdQLenPdf::28                      0                       # What read queue length does an incoming req see
system.mem_ctrls.rdQLenPdf::29                      0                       # What read queue length does an incoming req see
system.mem_ctrls.rdQLenPdf::30                      0                       # What read queue length does an incoming req see
system.mem_ctrls.rdQLenPdf::31                      0                       # What read queue length does an incoming req see
system.mem_ctrls.wrQLenPdf::0                  206239                       # What write queue length does an incoming req see
system.mem_ctrls.wrQLenPdf::1                  235473                       # What write queue length does an incoming req see
system.mem_ctrls.wrQLenPdf::2                  235718                       # What write queue length does an incoming req see
system.mem_ctrls.wrQLenPdf::3                  235742                       # What write queue length does an incoming req see
system.mem_ctrls.wrQLenPdf::4                  235745                       # What write queue length does an incoming req see
system.mem_ctrls.wrQLenPdf::5                  235746                       # What write queue length does an incoming req see
system.mem_ctrls.wrQLenPdf::6                  235746                       # What write queue length does an incoming req see
system.mem_ctrls.wrQLenPdf::7                  235746                       # What write queue length does an incoming req see
system.mem_ctrls.wrQLenPdf::8                  235746                       # What write queue length does an incoming req see
system.mem_ctrls.wrQLenPdf::9                  235746                       # What write queue length does an incoming req see
system.mem_ctrls.wrQLenPdf::10                 235746                       # What write queue length does an incoming req see
system.mem_ctrls.wrQLenPdf::11                 235746                       # What write queue length does an incoming req see
system.mem_ctrls.wrQLenPdf::12                 235746                       # What write queue length does an incoming req see
system.mem_ctrls.wrQLenPdf::13                 235746                       # What write queue length does an incoming req see
system.mem_ctrls.wrQLenPdf::14                 235746                       # What write queue length does an incoming req see
system.mem_ctrls.wrQLenPdf::15                 235746                       # What write queue length does an incoming req see
system.mem_ctrls.wrQLenPdf::16                 235746                       # What write queue length does an incoming req see
system.mem_ctrls.wrQLenPdf::17                 235746                       # What write queue length does an incoming req see
system.mem_ctrls.wrQLenPdf::18                 235746                       # What write queue length does an incoming req see
system.mem_ctrls.wrQLenPdf::19                 235746                       # What write queue length does an incoming req see
system.mem_ctrls.wrQLenPdf::20                 235746                       # What write queue length does an incoming req see
system.mem_ctrls.wrQLenPdf::21                 235745                       # What write queue length does an incoming req see
system.mem_ctrls.wrQLenPdf::22                 235745                       # What write queue length does an incoming req see
system.mem_ctrls.wrQLenPdf::23                  29507                       # What write queue length does an incoming req see
system.mem_ctrls.wrQLenPdf::24                    273                       # What write queue length does an incoming req see
system.mem_ctrls.wrQLenPdf::25                     28                       # What write queue length does an incoming req see
system.mem_ctrls.wrQLenPdf::26                      4                       # What write queue length does an incoming req see
system.mem_ctrls.wrQLenPdf::27                      1                       # What write queue length does an incoming req see
system.mem_ctrls.wrQLenPdf::28                      0                       # What write queue length does an incoming req see
system.mem_ctrls.wrQLenPdf::29                      0                       # What write queue length does an incoming req see
system.mem_ctrls.wrQLenPdf::30                      0                       # What write queue length does an incoming req see
system.mem_ctrls.wrQLenPdf::31                      0                       # What write queue length does an incoming req see
system.mem_ctrls.bytesPerActivate::samples      2486826                       # Bytes accessed per row activation
system.mem_ctrls.bytesPerActivate::mean    732.387286                       # Bytes accessed per row activation
system.mem_ctrls.bytesPerActivate::gmean   220.808300                       # Bytes accessed per row activation
system.mem_ctrls.bytesPerActivate::stdev  1524.958493                       # Bytes accessed per row activation
system.mem_ctrls.bytesPerActivate::64-65      1250676     50.29%     50.29% # Bytes accessed per row activation
system.mem_ctrls.bytesPerActivate::128-129       122318      4.92%     55.21% # Bytes accessed per row activation
system.mem_ctrls.bytesPerActivate::192-193        67341      2.71%     57.92% # Bytes accessed per row activation
system.mem_ctrls.bytesPerActivate::256-257        53755      2.16%     60.08% # Bytes accessed per row activation
system.mem_ctrls.bytesPerActivate::320-321        45819      1.84%     61.92% # Bytes accessed per row activation
system.mem_ctrls.bytesPerActivate::384-385        42281      1.70%     63.62% # Bytes accessed per row activation
system.mem_ctrls.bytesPerActivate::448-449        44851      1.80%     65.43% # Bytes accessed per row activation
system.mem_ctrls.bytesPerActivate::512-513        43181      1.74%     67.16% # Bytes accessed per row activation
system.mem_ctrls.bytesPerActivate::576-577        35034      1.41%     68.57% # Bytes accessed per row activation
system.mem_ctrls.bytesPerActivate::640-641        44005      1.77%     70.34% # Bytes accessed per row activation
system.mem_ctrls.bytesPerActivate::704-705        58972      2.37%     72.71% # Bytes accessed per row activation
system.mem_ctrls.bytesPerActivate::768-769        62616      2.52%     75.23% # Bytes accessed per row activation
system.mem_ctrls.bytesPerActivate::832-833        48465      1.95%     77.18% # Bytes accessed per row activation
system.mem_ctrls.bytesPerActivate::896-897        31778      1.28%     78.46% # Bytes accessed per row activation
system.mem_ctrls.bytesPerActivate::960-961        23237      0.93%     79.39% # Bytes accessed per row activation
system.mem_ctrls.bytesPerActivate::1024-1025        28665      1.15%     80.54% # Bytes accessed per row activation
system.mem_ctrls.bytesPerActivate::1088-1089        33731      1.36%     81.90% # Bytes accessed per row activation
system.mem_ctrls.bytesPerActivate::1152-1153        21882      0.88%     82.78% # Bytes accessed per row activation
system.mem_ctrls.bytesPerActivate::1216-1217        28495      1.15%     83.93% # Bytes accessed per row activation
system.mem_ctrls.bytesPerActivate::1280-1281        35197      1.42%     85.34% # Bytes accessed per row activation
system.mem_ctrls.bytesPerActivate::1344-1345        36864      1.48%     86.82% # Bytes accessed per row activation
system.mem_ctrls.bytesPerActivate::1408-1409        37557      1.51%     88.33% # Bytes accessed per row activation
system.mem_ctrls.bytesPerActivate::1472-1473        53259      2.14%     90.48% # Bytes accessed per row activation
system.mem_ctrls.bytesPerActivate::1536-1537        22406      0.90%     91.38% # Bytes accessed per row activation
system.mem_ctrls.bytesPerActivate::1600-1601        18674      0.75%     92.13% # Bytes accessed per row activation
system.mem_ctrls.bytesPerActivate::1664-1665        14562      0.59%     92.71% # Bytes accessed per row activation
system.mem_ctrls.bytesPerActivate::1728-1729        10112      0.41%     93.12% # Bytes accessed per row activation
system.mem_ctrls.bytesPerActivate::1792-1793         6424      0.26%     93.38% # Bytes accessed per row activation
system.mem_ctrls.bytesPerActivate::1856-1857         4242      0.17%     93.55% # Bytes accessed per row activation
system.mem_ctrls.bytesPerActivate::1920-1921         2943      0.12%     93.67% # Bytes accessed per row activation
system.mem_ctrls.bytesPerActivate::1984-1985         2372      0.10%     93.76% # Bytes accessed per row activation
system.mem_ctrls.bytesPerActivate::2048-2049         2250      0.09%     93.85% # Bytes accessed per row activation
system.mem_ctrls.bytesPerActivate::2112-2113         2601      0.10%     93.96% # Bytes accessed per row activation
system.mem_ctrls.bytesPerActivate::2176-2177         2421      0.10%     94.06% # Bytes accessed per row activation
system.mem_ctrls.bytesPerActivate::2240-2241         2123      0.09%     94.14% # Bytes accessed per row activation
system.mem_ctrls.bytesPerActivate::2304-2305         2009      0.08%     94.22% # Bytes accessed per row activation
system.mem_ctrls.bytesPerActivate::2368-2369         1889      0.08%     94.30% # Bytes accessed per row activation
system.mem_ctrls.bytesPerActivate::2432-2433         1725      0.07%     94.37% # Bytes accessed per row activation
system.mem_ctrls.bytesPerActivate::2496-2497         1684      0.07%     94.43% # Bytes accessed per row activation
system.mem_ctrls.bytesPerActivate::2560-2561         1485      0.06%     94.49% # Bytes accessed per row activation
system.mem_ctrls.bytesPerActivate::2624-2625         1300      0.05%     94.55% # Bytes accessed per row activation
system.mem_ctrls.bytesPerActivate::2688-2689         1210      0.05%     94.59% # Bytes accessed per row activation
system.mem_ctrls.bytesPerActivate::2752-2753         1397      0.06%     94.65% # Bytes accessed per row activation
system.mem_ctrls.bytesPerActivate::2816-2817         1273      0.05%     94.70% # Bytes accessed per row activation
system.mem_ctrls.bytesPerActivate::2880-2881         1678      0.07%     94.77% # Bytes accessed per row activation
system.mem_ctrls.bytesPerActivate::2944-2945         1539      0.06%     94.83% # Bytes accessed per row activation
system.mem_ctrls.bytesPerActivate::3008-3009         1414      0.06%     94.89% # Bytes accessed per row activation
system.mem_ctrls.bytesPerActivate::3072-3073         1461      0.06%     94.95% # Bytes accessed per row activation
system.mem_ctrls.bytesPerActivate::3136-3137         1345      0.05%     95.00% # Bytes accessed per row activation
system.mem_ctrls.bytesPerActivate::3200-3201         5209      0.21%     95.21% # Bytes accessed per row activation
system.mem_ctrls.bytesPerActivate::3264-3265         1393      0.06%     95.27% # Bytes accessed per row activation
system.mem_ctrls.bytesPerActivate::3328-3329         1375      0.06%     95.32% # Bytes accessed per row activation
system.mem_ctrls.bytesPerActivate::3392-3393         1319      0.05%     95.38% # Bytes accessed per row activation
system.mem_ctrls.bytesPerActivate::3456-3457         1259      0.05%     95.43% # Bytes accessed per row activation
system.mem_ctrls.bytesPerActivate::3520-3521         1183      0.05%     95.47% # Bytes accessed per row activation
system.mem_ctrls.bytesPerActivate::3584-3585         1231      0.05%     95.52% # Bytes accessed per row activation
system.mem_ctrls.bytesPerActivate::3648-3649         1116      0.04%     95.57% # Bytes accessed per row activation
system.mem_ctrls.bytesPerActivate::3712-3713         1155      0.05%     95.61% # Bytes accessed per row activation
system.mem_ctrls.bytesPerActivate::3776-3777         1084      0.04%     95.66% # Bytes accessed per row activation
system.mem_ctrls.bytesPerActivate::3840-3841         1078      0.04%     95.70% # Bytes accessed per row activation
system.mem_ctrls.bytesPerActivate::3904-3905         1093      0.04%     95.75% # Bytes accessed per row activation
system.mem_ctrls.bytesPerActivate::3968-3969         1194      0.05%     95.79% # Bytes accessed per row activation
system.mem_ctrls.bytesPerActivate::4032-4033          949      0.04%     95.83% # Bytes accessed per row activation
system.mem_ctrls.bytesPerActivate::4096-4097          994      0.04%     95.87% # Bytes accessed per row activation
system.mem_ctrls.bytesPerActivate::4160-4161          942      0.04%     95.91% # Bytes accessed per row activation
system.mem_ctrls.bytesPerActivate::4224-4225         4579      0.18%     96.09% # Bytes accessed per row activation
system.mem_ctrls.bytesPerActivate::4288-4289          833      0.03%     96.13% # Bytes accessed per row activation
system.mem_ctrls.bytesPerActivate::4352-4353          693      0.03%     96.15% # Bytes accessed per row activation
system.mem_ctrls.bytesPerActivate::4416-4417          675      0.03%     96.18% # Bytes accessed per row activation
system.mem_ctrls.bytesPerActivate::4480-4481          702      0.03%     96.21% # Bytes accessed per row activation
system.mem_ctrls.bytesPerActivate::4544-4545          615      0.02%     96.23% # Bytes accessed per row activation
system.mem_ctrls.bytesPerActivate::4608-4609          625      0.03%     96.26% # Bytes accessed per row activation
system.mem_ctrls.bytesPerActivate::4672-4673          612      0.02%     96.28% # Bytes accessed per row activation
system.mem_ctrls.bytesPerActivate::4736-4737          584      0.02%     96.31% # Bytes accessed per row activation
system.mem_ctrls.bytesPerActivate::4800-4801          555      0.02%     96.33% # Bytes accessed per row activation
system.mem_ctrls.bytesPerActivate::4864-4865          610      0.02%     96.35% # Bytes accessed per row activation
system.mem_ctrls.bytesPerActivate::4928-4929          550      0.02%     96.38% # Bytes accessed per row activation
system.mem_ctrls.bytesPerActivate::4992-4993          531      0.02%     96.40% # Bytes accessed per row activation
system.mem_ctrls.bytesPerActivate::5056-5057          517      0.02%     96.42% # Bytes accessed per row activation
system.mem_ctrls.bytesPerActivate::5120-5121          555      0.02%     96.44% # Bytes accessed per row activation
system.mem_ctrls.bytesPerActivate::5184-5185          516      0.02%     96.46% # Bytes accessed per row activation
system.mem_ctrls.bytesPerActivate::5248-5249          479      0.02%     96.48% # Bytes accessed per row activation
system.mem_ctrls.bytesPerActivate::5312-5313          496      0.02%     96.50% # Bytes accessed per row activation
system.mem_ctrls.bytesPerActivate::5376-5377          439      0.02%     96.52% # Bytes accessed per row activation
system.mem_ctrls.bytesPerActivate::5440-5441          446      0.02%     96.54% # Bytes accessed per row activation
system.mem_ctrls.bytesPerActivate::5504-5505          419      0.02%     96.55% # Bytes accessed per row activation
system.mem_ctrls.bytesPerActivate::5568-5569          427      0.02%     96.57% # Bytes accessed per row activation
system.mem_ctrls.bytesPerActivate::5632-5633          429      0.02%     96.59% # Bytes accessed per row activation
system.mem_ctrls.bytesPerActivate::5696-5697          399      0.02%     96.60% # Bytes accessed per row activation
system.mem_ctrls.bytesPerActivate::5760-5761          406      0.02%     96.62% # Bytes accessed per row activation
system.mem_ctrls.bytesPerActivate::5824-5825          338      0.01%     96.63% # Bytes accessed per row activation
system.mem_ctrls.bytesPerActivate::5888-5889          339      0.01%     96.65% # Bytes accessed per row activation
system.mem_ctrls.bytesPerActivate::5952-5953          362      0.01%     96.66% # Bytes accessed per row activation
system.mem_ctrls.bytesPerActivate::6016-6017          307      0.01%     96.67% # Bytes accessed per row activation
system.mem_ctrls.bytesPerActivate::6080-6081          325      0.01%     96.69% # Bytes accessed per row activation
system.mem_ctrls.bytesPerActivate::6144-6145          358      0.01%     96.70% # Bytes accessed per row activation
system.mem_ctrls.bytesPerActivate::6208-6209          421      0.02%     96.72% # Bytes accessed per row activation
system.mem_ctrls.bytesPerActivate::6272-6273         3713      0.15%     96.87% # Bytes accessed per row activation
system.mem_ctrls.bytesPerActivate::6336-6337          294      0.01%     96.88% # Bytes accessed per row activation
system.mem_ctrls.bytesPerActivate::6400-6401          329      0.01%     96.89% # Bytes accessed per row activation
system.mem_ctrls.bytesPerActivate::6464-6465          277      0.01%     96.90% # Bytes accessed per row activation
system.mem_ctrls.bytesPerActivate::6528-6529          263      0.01%     96.92% # Bytes accessed per row activation
system.mem_ctrls.bytesPerActivate::6592-6593          312      0.01%     96.93% # Bytes accessed per row activation
system.mem_ctrls.bytesPerActivate::6656-6657          240      0.01%     96.94% # Bytes accessed per row activation
system.mem_ctrls.bytesPerActivate::6720-6721          270      0.01%     96.95% # Bytes accessed per row activation
system.mem_ctrls.bytesPerActivate::6784-6785          289      0.01%     96.96% # Bytes accessed per row activation
system.mem_ctrls.bytesPerActivate::6848-6849          326      0.01%     96.97% # Bytes accessed per row activation
system.mem_ctrls.bytesPerActivate::6912-6913          363      0.01%     96.99% # Bytes accessed per row activation
system.mem_ctrls.bytesPerActivate::6976-6977          386      0.02%     97.00% # Bytes accessed per row activation
system.mem_ctrls.bytesPerActivate::7040-7041          432      0.02%     97.02% # Bytes accessed per row activation
system.mem_ctrls.bytesPerActivate::7104-7105          422      0.02%     97.04% # Bytes accessed per row activation
system.mem_ctrls.bytesPerActivate::7168-7169          661      0.03%     97.06% # Bytes accessed per row activation
system.mem_ctrls.bytesPerActivate::7232-7233          485      0.02%     97.08% # Bytes accessed per row activation
system.mem_ctrls.bytesPerActivate::7296-7297          467      0.02%     97.10% # Bytes accessed per row activation
system.mem_ctrls.bytesPerActivate::7360-7361          450      0.02%     97.12% # Bytes accessed per row activation
system.mem_ctrls.bytesPerActivate::7424-7425          817      0.03%     97.15% # Bytes accessed per row activation
system.mem_ctrls.bytesPerActivate::7488-7489          181      0.01%     97.16% # Bytes accessed per row activation
system.mem_ctrls.bytesPerActivate::7552-7553          176      0.01%     97.17% # Bytes accessed per row activation
system.mem_ctrls.bytesPerActivate::7616-7617          154      0.01%     97.17% # Bytes accessed per row activation
system.mem_ctrls.bytesPerActivate::7680-7681          191      0.01%     97.18% # Bytes accessed per row activation
system.mem_ctrls.bytesPerActivate::7744-7745          184      0.01%     97.19% # Bytes accessed per row activation
system.mem_ctrls.bytesPerActivate::7808-7809          196      0.01%     97.20% # Bytes accessed per row activation
system.mem_ctrls.bytesPerActivate::7872-7873          166      0.01%     97.20% # Bytes accessed per row activation
system.mem_ctrls.bytesPerActivate::7936-7937          151      0.01%     97.21% # Bytes accessed per row activation
system.mem_ctrls.bytesPerActivate::8000-8001          125      0.01%     97.21% # Bytes accessed per row activation
system.mem_ctrls.bytesPerActivate::8064-8065          197      0.01%     97.22% # Bytes accessed per row activation
system.mem_ctrls.bytesPerActivate::8128-8129          108      0.00%     97.23% # Bytes accessed per row activation
system.mem_ctrls.bytesPerActivate::8192-8193        68967      2.77%    100.00% # Bytes accessed per row activation
system.mem_ctrls.bytesPerActivate::total      2486826                       # Bytes accessed per row activation
system.mem_ctrls.totQLat                 141813430394                       # Total cycles spent in queuing delays
system.mem_ctrls.totMemAccLat            613625114144                       # Sum of mem lat for all requests
system.mem_ctrls.totBusLat               115182430000                       # Total cycles spent in databus access
system.mem_ctrls.totBankLat              356629253750                       # Total cycles spent in bank access
system.mem_ctrls.avgQLat                      6156.04                       # Average queueing delay per request
system.mem_ctrls.avgBankLat                  15481.06                       # Average bank access latency per request
system.mem_ctrls.avgBusLat                    5000.00                       # Average bus latency per request
system.mem_ctrls.avgMemAccLat                26637.10                       # Average memory access latency
system.mem_ctrls.avgRdBW                      1507.98                       # Average achieved read bandwidth in MB/s
system.mem_ctrls.avgWrBW                       354.93                       # Average achieved write bandwidth in MB/s
system.mem_ctrls.avgConsumedRdBW              1507.98                       # Average consumed read bandwidth in MB/s
system.mem_ctrls.avgConsumedWrBW               354.93                       # Average consumed write bandwidth in MB/s
system.mem_ctrls.peakBW                      12800.00                       # Theoretical peak bandwidth in MB/s
system.mem_ctrls.busUtil                        14.55                       # Data bus utilization in percentage
system.mem_ctrls.avgRdQLen                       0.63                       # Average read queue length over time
system.mem_ctrls.avgWrQLen                       9.63                       # Average write queue length over time
system.mem_ctrls.readRowHits                 21251083                       # Number of row buffer hits during reads
system.mem_ctrls.writeRowHits                 4720712                       # Number of row buffer hits during writes
system.mem_ctrls.readRowHitRate                 92.25                       # Row buffer hit rate for reads
system.mem_ctrls.writeRowHitRate                87.06                       # Row buffer hit rate for writes
system.mem_ctrls.avgGap                      34354.75                       # Average gap between requests
system.membus.throughput                   1862914953                       # Throughput (bytes/s)
system.membus.trans_dist::ReadReq            18161378                       # Transaction distribution
system.membus.trans_dist::ReadResp           18161377                       # Transaction distribution
system.membus.trans_dist::Writeback           5422162                       # Transaction distribution
system.membus.trans_dist::ReadExReq           4875359                       # Transaction distribution
system.membus.trans_dist::ReadExResp          4875358                       # Transaction distribution
system.membus.pkt_count_system.l2.mem_side::system.mem_ctrls.port     51495634                       # Packet count per connected master and slave (bytes)
system.membus.pkt_count::total               51495634                       # Packet count per connected master and slave (bytes)
system.membus.tot_pkt_size_system.l2.mem_side::system.mem_ctrls.port   1821369408                       # Cumulative packet size per connected master and slave (bytes)
system.membus.tot_pkt_size::total          1821369408                       # Cumulative packet size per connected master and slave (bytes)
system.membus.data_through_bus             1821369408                       # Total data (bytes)
system.membus.snoop_data_through_bus                0                       # Total snoop data (bytes)
system.membus.reqLayer0.occupancy         23921452935                       # Layer occupancy (ticks)
system.membus.reqLayer0.utilization               2.4                       # Layer utilization (%)
system.membus.respLayer1.occupancy        73608826300                       # Layer occupancy (ticks)
system.membus.respLayer1.utilization              7.5                       # Layer utilization (%)
system.switch_cpus.branchPred.lookups       106189431                       # Number of BP lookups
system.switch_cpus.branchPred.condPredicted    106034050                       # Number of conditional branches predicted
system.switch_cpus.branchPred.condIncorrect       409080                       # Number of conditional branches incorrect
system.switch_cpus.branchPred.BTBLookups    106025326                       # Number of BTB lookups
system.switch_cpus.branchPred.BTBHits       105599789                       # Number of BTB hits
system.switch_cpus.branchPred.BTBCorrect            0                       # Number of correct BTB predictions (this stat may not work properly.
system.switch_cpus.branchPred.BTBHitPct     99.598646                       # BTB Hit Percentage
system.switch_cpus.branchPred.usedRAS           22880                       # Number of times the RAS was used to get a target.
system.switch_cpus.branchPred.RASInCorrect         1136                       # Number of incorrect RAS predictions.
system.switch_cpus.dtb.fetch_hits                   0                       # ITB hits
system.switch_cpus.dtb.fetch_misses                 0                       # ITB misses
system.switch_cpus.dtb.fetch_acv                    0                       # ITB acv
system.switch_cpus.dtb.fetch_accesses               0                       # ITB accesses
system.switch_cpus.dtb.read_hits            403229761                       # DTB read hits
system.switch_cpus.dtb.read_misses            1555023                       # DTB read misses
system.switch_cpus.dtb.read_acv                     0                       # DTB read access violations
system.switch_cpus.dtb.read_accesses        404784784                       # DTB read accesses
system.switch_cpus.dtb.write_hits           127829385                       # DTB write hits
system.switch_cpus.dtb.write_misses            151868                       # DTB write misses
system.switch_cpus.dtb.write_acv                    0                       # DTB write access violations
system.switch_cpus.dtb.write_accesses       127981253                       # DTB write accesses
system.switch_cpus.dtb.data_hits            531059146                       # DTB hits
system.switch_cpus.dtb.data_misses            1706891                       # DTB misses
system.switch_cpus.dtb.data_acv                     0                       # DTB access violations
system.switch_cpus.dtb.data_accesses        532766037                       # DTB accesses
system.switch_cpus.itb.fetch_hits           212729637                       # ITB hits
system.switch_cpus.itb.fetch_misses               125                       # ITB misses
system.switch_cpus.itb.fetch_acv                    0                       # ITB acv
system.switch_cpus.itb.fetch_accesses       212729762                       # ITB accesses
system.switch_cpus.itb.read_hits                    0                       # DTB read hits
system.switch_cpus.itb.read_misses                  0                       # DTB read misses
system.switch_cpus.itb.read_acv                     0                       # DTB read access violations
system.switch_cpus.itb.read_accesses                0                       # DTB read accesses
system.switch_cpus.itb.write_hits                   0                       # DTB write hits
system.switch_cpus.itb.write_misses                 0                       # DTB write misses
system.switch_cpus.itb.write_acv                    0                       # DTB write access violations
system.switch_cpus.itb.write_accesses               0                       # DTB write accesses
system.switch_cpus.itb.data_hits                    0                       # DTB hits
system.switch_cpus.itb.data_misses                  0                       # DTB misses
system.switch_cpus.itb.data_acv                     0                       # DTB access violations
system.switch_cpus.itb.data_accesses                0                       # DTB accesses
system.cpu.workload.num_syscalls                    2                       # Number of system calls
system.switch_cpus.numCycles               2936031942                       # number of cpu cycles simulated
system.switch_cpus.numWorkItemsStarted              0                       # number of work items this cpu started
system.switch_cpus.numWorkItemsCompleted            0                       # number of work items this cpu completed
system.switch_cpus.fetch.icacheStallCycles    430373933                       # Number of cycles fetch is stalled on an Icache miss
system.switch_cpus.fetch.Insts             2170182298                       # Number of instructions fetch has processed
system.switch_cpus.fetch.Branches           106189431                       # Number of branches that fetch encountered
system.switch_cpus.fetch.predictedBranches    105622669                       # Number of branches that fetch has predicted taken
system.switch_cpus.fetch.Cycles             326546233                       # Number of cycles fetch has run and was not squashing or blocked
system.switch_cpus.fetch.SquashCycles        19281727                       # Number of cycles fetch has spent squashing
system.switch_cpus.fetch.BlockedCycles     1862162090                       # Number of cycles fetch has spent blocked
system.switch_cpus.fetch.MiscStallCycles          301                       # Number of cycles fetch has spent waiting on interrupts, or bad addresses, or out of MSHRs
system.switch_cpus.fetch.PendingTrapStallCycles         4371                       # Number of stall cycles due to pending traps
system.switch_cpus.fetch.IcacheWaitRetryStallCycles           67                       # Number of stall cycles due to full MSHR
system.switch_cpus.fetch.CacheLines         212729637                       # Number of cache lines fetched
system.switch_cpus.fetch.IcacheSquashes        355112                       # Number of outstanding Icache misses that were squashed
system.switch_cpus.fetch.rateDist::samples   2631993968                       # Number of instructions fetched each cycle (Total)
system.switch_cpus.fetch.rateDist::mean      0.824539                       # Number of instructions fetched each cycle (Total)
system.switch_cpus.fetch.rateDist::stdev     2.276706                       # Number of instructions fetched each cycle (Total)
system.switch_cpus.fetch.rateDist::underflows            0      0.00%      0.00% # Number of instructions fetched each cycle (Total)
system.switch_cpus.fetch.rateDist::0       2305447735     87.59%     87.59% # Number of instructions fetched each cycle (Total)
system.switch_cpus.fetch.rateDist::1          3711425      0.14%     87.73% # Number of instructions fetched each cycle (Total)
system.switch_cpus.fetch.rateDist::2          2814266      0.11%     87.84% # Number of instructions fetched each cycle (Total)
system.switch_cpus.fetch.rateDist::3          4401767      0.17%     88.01% # Number of instructions fetched each cycle (Total)
system.switch_cpus.fetch.rateDist::4         65360226      2.48%     90.49% # Number of instructions fetched each cycle (Total)
system.switch_cpus.fetch.rateDist::5          6400780      0.24%     90.73% # Number of instructions fetched each cycle (Total)
system.switch_cpus.fetch.rateDist::6          7417861      0.28%     91.02% # Number of instructions fetched each cycle (Total)
system.switch_cpus.fetch.rateDist::7         81834194      3.11%     94.13% # Number of instructions fetched each cycle (Total)
system.switch_cpus.fetch.rateDist::8        154605714      5.87%    100.00% # Number of instructions fetched each cycle (Total)
system.switch_cpus.fetch.rateDist::overflows            0      0.00%    100.00% # Number of instructions fetched each cycle (Total)
system.switch_cpus.fetch.rateDist::min_value            0                       # Number of instructions fetched each cycle (Total)
system.switch_cpus.fetch.rateDist::max_value            8                       # Number of instructions fetched each cycle (Total)
system.switch_cpus.fetch.rateDist::total   2631993968                       # Number of instructions fetched each cycle (Total)
system.switch_cpus.fetch.branchRate          0.036168                       # Number of branch fetches per cycle
system.switch_cpus.fetch.rate                0.739155                       # Number of inst fetches per cycle
system.switch_cpus.decode.IdleCycles        474118927                       # Number of cycles decode is idle
system.switch_cpus.decode.BlockedCycles    1819469909                       # Number of cycles decode is blocked
system.switch_cpus.decode.RunCycles         298728989                       # Number of cycles decode is running
system.switch_cpus.decode.UnblockCycles      26773283                       # Number of cycles decode is unblocking
system.switch_cpus.decode.SquashCycles       12902859                       # Number of cycles decode is squashing
system.switch_cpus.decode.BranchResolved       126488                       # Number of times decode resolved a branch
system.switch_cpus.decode.BranchMispred          4225                       # Number of times decode detected a branch misprediction
system.switch_cpus.decode.DecodedInsts     2162899592                       # Number of instructions handled by decode
system.switch_cpus.decode.SquashedInsts          7570                       # Number of squashed instructions handled by decode
system.switch_cpus.rename.SquashCycles       12902859                       # Number of cycles rename is squashing
system.switch_cpus.rename.IdleCycles        497445060                       # Number of cycles rename is idle
system.switch_cpus.rename.BlockCycles      1654533384                       # Number of cycles rename is blocking
system.switch_cpus.rename.serializeStallCycles        84791                       # count of cycles rename stalled for serializing inst
system.switch_cpus.rename.RunCycles         300251325                       # Number of cycles rename is running
system.switch_cpus.rename.UnblockCycles     166776548                       # Number of cycles rename is unblocking
system.switch_cpus.rename.RenamedInsts     2150449973                       # Number of instructions processed by rename
system.switch_cpus.rename.ROBFullEvents        524433                       # Number of times rename has blocked due to ROB full
system.switch_cpus.rename.IQFullEvents       47311007                       # Number of times rename has blocked due to IQ full
system.switch_cpus.rename.LSQFullEvents     110974926                       # Number of times rename has blocked due to LSQ full
system.switch_cpus.rename.RenamedOperands   1912247195                       # Number of destination operands rename has renamed
system.switch_cpus.rename.RenameLookups    3393485818                       # Number of register rename lookups that rename has made
system.switch_cpus.rename.int_rename_lookups   1192732256                       # Number of integer rename lookups
system.switch_cpus.rename.fp_rename_lookups   2200753562                       # Number of floating rename lookups
system.switch_cpus.rename.CommittedMaps    1772716426                       # Number of HB maps that are committed
system.switch_cpus.rename.UndoneMaps        139530703                       # Number of HB maps that are undone due to squashing
system.switch_cpus.rename.serializingInsts         4142                       # count of serializing insts renamed
system.switch_cpus.rename.tempSerializingInsts          237                       # count of temporary serializing insts renamed
system.switch_cpus.rename.skidInsts         377604069                       # count of insts added to the skid buffer
system.switch_cpus.memDep0.insertedLoads    409161559                       # Number of loads inserted to the mem dependence unit.
system.switch_cpus.memDep0.insertedStores    131740054                       # Number of stores inserted to the mem dependence unit.
system.switch_cpus.memDep0.conflictingLoads      9388320                       # Number of conflicting loads.
system.switch_cpus.memDep0.conflictingStores      4492490                       # Number of conflicting stores.
system.switch_cpus.iq.iqInstsAdded         2076773384                       # Number of instructions added to the IQ (excludes non-spec)
system.switch_cpus.iq.iqNonSpecInstsAdded          464                       # Number of non-speculative instructions added to the IQ
system.switch_cpus.iq.iqInstsIssued        2045042725                       # Number of instructions issued
system.switch_cpus.iq.iqSquashedInstsIssued      7666674                       # Number of squashed instructions issued
system.switch_cpus.iq.iqSquashedInstsExamined     76759653                       # Number of squashed instructions iterated over during squash; mainly for profiling
system.switch_cpus.iq.iqSquashedOperandsExamined     67219846                       # Number of squashed operands that are examined and possibly removed from graph
system.switch_cpus.iq.iqSquashedNonSpecRemoved           14                       # Number of squashed non-spec instructions that were removed
system.switch_cpus.iq.issued_per_cycle::samples   2631993968                       # Number of insts issued each cycle
system.switch_cpus.iq.issued_per_cycle::mean     0.776994                       # Number of insts issued each cycle
system.switch_cpus.iq.issued_per_cycle::stdev     1.360931                       # Number of insts issued each cycle
system.switch_cpus.iq.issued_per_cycle::underflows            0      0.00%      0.00% # Number of insts issued each cycle
system.switch_cpus.iq.issued_per_cycle::0   1765536481     67.08%     67.08% # Number of insts issued each cycle
system.switch_cpus.iq.issued_per_cycle::1    259074822      9.84%     76.92% # Number of insts issued each cycle
system.switch_cpus.iq.issued_per_cycle::2    299511114     11.38%     88.30% # Number of insts issued each cycle
system.switch_cpus.iq.issued_per_cycle::3    163815180      6.22%     94.53% # Number of insts issued each cycle
system.switch_cpus.iq.issued_per_cycle::4     80816288      3.07%     97.60% # Number of insts issued each cycle
system.switch_cpus.iq.issued_per_cycle::5     24963838      0.95%     98.55% # Number of insts issued each cycle
system.switch_cpus.iq.issued_per_cycle::6     23703601      0.90%     99.45% # Number of insts issued each cycle
system.switch_cpus.iq.issued_per_cycle::7     11386965      0.43%     99.88% # Number of insts issued each cycle
system.switch_cpus.iq.issued_per_cycle::8      3185679      0.12%    100.00% # Number of insts issued each cycle
system.switch_cpus.iq.issued_per_cycle::overflows            0      0.00%    100.00% # Number of insts issued each cycle
system.switch_cpus.iq.issued_per_cycle::min_value            0                       # Number of insts issued each cycle
system.switch_cpus.iq.issued_per_cycle::max_value            8                       # Number of insts issued each cycle
system.switch_cpus.iq.issued_per_cycle::total   2631993968                       # Number of insts issued each cycle
system.switch_cpus.iq.fu_full::No_OpClass            0      0.00%      0.00% # attempts to use FU when none available
system.switch_cpus.iq.fu_full::IntAlu           85134      0.12%      0.12% # attempts to use FU when none available
system.switch_cpus.iq.fu_full::IntMult              0      0.00%      0.12% # attempts to use FU when none available
system.switch_cpus.iq.fu_full::IntDiv               0      0.00%      0.12% # attempts to use FU when none available
system.switch_cpus.iq.fu_full::FloatAdd        495030      0.72%      0.84% # attempts to use FU when none available
system.switch_cpus.iq.fu_full::FloatCmp             0      0.00%      0.84% # attempts to use FU when none available
system.switch_cpus.iq.fu_full::FloatCvt             0      0.00%      0.84% # attempts to use FU when none available
system.switch_cpus.iq.fu_full::FloatMult     52365264     76.11%     76.95% # attempts to use FU when none available
system.switch_cpus.iq.fu_full::FloatDiv       9775284     14.21%     91.16% # attempts to use FU when none available
system.switch_cpus.iq.fu_full::FloatSqrt       134639      0.20%     91.36% # attempts to use FU when none available
system.switch_cpus.iq.fu_full::SimdAdd              0      0.00%     91.36% # attempts to use FU when none available
system.switch_cpus.iq.fu_full::SimdAddAcc            0      0.00%     91.36% # attempts to use FU when none available
system.switch_cpus.iq.fu_full::SimdAlu              0      0.00%     91.36% # attempts to use FU when none available
system.switch_cpus.iq.fu_full::SimdCmp              0      0.00%     91.36% # attempts to use FU when none available
system.switch_cpus.iq.fu_full::SimdCvt              0      0.00%     91.36% # attempts to use FU when none available
system.switch_cpus.iq.fu_full::SimdMisc             0      0.00%     91.36% # attempts to use FU when none available
system.switch_cpus.iq.fu_full::SimdMult             0      0.00%     91.36% # attempts to use FU when none available
system.switch_cpus.iq.fu_full::SimdMultAcc            0      0.00%     91.36% # attempts to use FU when none available
system.switch_cpus.iq.fu_full::SimdShift            0      0.00%     91.36% # attempts to use FU when none available
system.switch_cpus.iq.fu_full::SimdShiftAcc            0      0.00%     91.36% # attempts to use FU when none available
system.switch_cpus.iq.fu_full::SimdSqrt             0      0.00%     91.36% # attempts to use FU when none available
system.switch_cpus.iq.fu_full::SimdFloatAdd            0      0.00%     91.36% # attempts to use FU when none available
system.switch_cpus.iq.fu_full::SimdFloatAlu            0      0.00%     91.36% # attempts to use FU when none available
system.switch_cpus.iq.fu_full::SimdFloatCmp            0      0.00%     91.36% # attempts to use FU when none available
system.switch_cpus.iq.fu_full::SimdFloatCvt            0      0.00%     91.36% # attempts to use FU when none available
system.switch_cpus.iq.fu_full::SimdFloatDiv            0      0.00%     91.36% # attempts to use FU when none available
system.switch_cpus.iq.fu_full::SimdFloatMisc            0      0.00%     91.36% # attempts to use FU when none available
system.switch_cpus.iq.fu_full::SimdFloatMult            0      0.00%     91.36% # attempts to use FU when none available
system.switch_cpus.iq.fu_full::SimdFloatMultAcc            0      0.00%     91.36% # attempts to use FU when none available
system.switch_cpus.iq.fu_full::SimdFloatSqrt            0      0.00%     91.36% # attempts to use FU when none available
system.switch_cpus.iq.fu_full::MemRead        2919467      4.24%     95.60% # attempts to use FU when none available
system.switch_cpus.iq.fu_full::MemWrite       3028151      4.40%    100.00% # attempts to use FU when none available
system.switch_cpus.iq.fu_full::IprAccess            0      0.00%    100.00% # attempts to use FU when none available
system.switch_cpus.iq.fu_full::InstPrefetch            0      0.00%    100.00% # attempts to use FU when none available
system.switch_cpus.iq.FU_type_0::No_OpClass          104      0.00%      0.00% # Type of FU issued
system.switch_cpus.iq.FU_type_0::IntAlu     760046400     37.17%     37.17% # Type of FU issued
system.switch_cpus.iq.FU_type_0::IntMult         4833      0.00%     37.17% # Type of FU issued
system.switch_cpus.iq.FU_type_0::IntDiv             0      0.00%     37.17% # Type of FU issued
system.switch_cpus.iq.FU_type_0::FloatAdd    307379286     15.03%     52.20% # Type of FU issued
system.switch_cpus.iq.FU_type_0::FloatCmp    104080141      5.09%     57.29% # Type of FU issued
system.switch_cpus.iq.FU_type_0::FloatCvt     56243141      2.75%     60.04% # Type of FU issued
system.switch_cpus.iq.FU_type_0::FloatMult    270465291     13.23%     73.26% # Type of FU issued
system.switch_cpus.iq.FU_type_0::FloatDiv     10688573      0.52%     73.78% # Type of FU issued
system.switch_cpus.iq.FU_type_0::FloatSqrt      1845228      0.09%     73.87% # Type of FU issued
system.switch_cpus.iq.FU_type_0::SimdAdd            0      0.00%     73.87% # Type of FU issued
system.switch_cpus.iq.FU_type_0::SimdAddAcc            0      0.00%     73.87% # Type of FU issued
system.switch_cpus.iq.FU_type_0::SimdAlu            0      0.00%     73.87% # Type of FU issued
system.switch_cpus.iq.FU_type_0::SimdCmp            0      0.00%     73.87% # Type of FU issued
system.switch_cpus.iq.FU_type_0::SimdCvt            0      0.00%     73.87% # Type of FU issued
system.switch_cpus.iq.FU_type_0::SimdMisc            0      0.00%     73.87% # Type of FU issued
system.switch_cpus.iq.FU_type_0::SimdMult            0      0.00%     73.87% # Type of FU issued
system.switch_cpus.iq.FU_type_0::SimdMultAcc            0      0.00%     73.87% # Type of FU issued
system.switch_cpus.iq.FU_type_0::SimdShift            0      0.00%     73.87% # Type of FU issued
system.switch_cpus.iq.FU_type_0::SimdShiftAcc            0      0.00%     73.87% # Type of FU issued
system.switch_cpus.iq.FU_type_0::SimdSqrt            0      0.00%     73.87% # Type of FU issued
system.switch_cpus.iq.FU_type_0::SimdFloatAdd            0      0.00%     73.87% # Type of FU issued
system.switch_cpus.iq.FU_type_0::SimdFloatAlu            0      0.00%     73.87% # Type of FU issued
system.switch_cpus.iq.FU_type_0::SimdFloatCmp            0      0.00%     73.87% # Type of FU issued
system.switch_cpus.iq.FU_type_0::SimdFloatCvt            0      0.00%     73.87% # Type of FU issued
system.switch_cpus.iq.FU_type_0::SimdFloatDiv            0      0.00%     73.87% # Type of FU issued
system.switch_cpus.iq.FU_type_0::SimdFloatMisc            0      0.00%     73.87% # Type of FU issued
system.switch_cpus.iq.FU_type_0::SimdFloatMult            0      0.00%     73.87% # Type of FU issued
system.switch_cpus.iq.FU_type_0::SimdFloatMultAcc            0      0.00%     73.87% # Type of FU issued
system.switch_cpus.iq.FU_type_0::SimdFloatSqrt            0      0.00%     73.87% # Type of FU issued
system.switch_cpus.iq.FU_type_0::MemRead    406294650     19.87%     93.74% # Type of FU issued
system.switch_cpus.iq.FU_type_0::MemWrite    127995078      6.26%    100.00% # Type of FU issued
system.switch_cpus.iq.FU_type_0::IprAccess            0      0.00%    100.00% # Type of FU issued
system.switch_cpus.iq.FU_type_0::InstPrefetch            0      0.00%    100.00% # Type of FU issued
system.switch_cpus.iq.FU_type_0::total     2045042725                       # Type of FU issued
system.switch_cpus.iq.rate                   0.696533                       # Inst issue rate
system.switch_cpus.iq.fu_busy_cnt            68802969                       # FU busy when requested
system.switch_cpus.iq.fu_busy_rate           0.033644                       # FU busy rate (busy events/executed inst)
system.switch_cpus.iq.int_inst_queue_reads   4281293743                       # Number of integer instruction queue reads
system.switch_cpus.iq.int_inst_queue_writes    869414167                       # Number of integer instruction queue writes
system.switch_cpus.iq.int_inst_queue_wakeup_accesses    820357454                       # Number of integer instruction queue wakeup accesses
system.switch_cpus.iq.fp_inst_queue_reads   2517255315                       # Number of floating instruction queue reads
system.switch_cpus.iq.fp_inst_queue_writes   1284121545                       # Number of floating instruction queue writes
system.switch_cpus.iq.fp_inst_queue_wakeup_accesses   1208701911                       # Number of floating instruction queue wakeup accesses
system.switch_cpus.iq.int_alu_accesses      823982465                       # Number of integer alu accesses
system.switch_cpus.iq.fp_alu_accesses      1289863125                       # Number of floating point alu accesses
system.switch_cpus.iew.lsq.thread0.forwLoads      5832980                       # Number of loads that had data forwarded from stores
system.switch_cpus.iew.lsq.thread0.invAddrLoads            0                       # Number of loads ignored due to an invalid address
system.switch_cpus.iew.lsq.thread0.squashedLoads     19687199                       # Number of loads squashed
system.switch_cpus.iew.lsq.thread0.ignoredResponses          608                       # Number of memory responses ignored because the instruction is squashed
system.switch_cpus.iew.lsq.thread0.memOrderViolation         2212                       # Number of memory ordering violations
system.switch_cpus.iew.lsq.thread0.squashedStores      4341566                       # Number of stores squashed
system.switch_cpus.iew.lsq.thread0.invAddrSwpfs            0                       # Number of software prefetches ignored due to an invalid address
system.switch_cpus.iew.lsq.thread0.blockedLoads            0                       # Number of blocked loads due to partial load-store forwarding
system.switch_cpus.iew.lsq.thread0.rescheduledLoads          340                       # Number of loads that were rescheduled
system.switch_cpus.iew.lsq.thread0.cacheBlocked     10337963                       # Number of times an access to memory failed due to the cache being blocked
system.switch_cpus.iew.iewIdleCycles                0                       # Number of cycles IEW is idle
system.switch_cpus.iew.iewSquashCycles       12902859                       # Number of cycles IEW is squashing
system.switch_cpus.iew.iewBlockCycles      1438862541                       # Number of cycles IEW is blocking
system.switch_cpus.iew.iewUnblockCycles      24416783                       # Number of cycles IEW is unblocking
system.switch_cpus.iew.iewDispatchedInsts   2077469686                       # Number of instructions dispatched to IQ
system.switch_cpus.iew.iewDispSquashedInsts     28983815                       # Number of squashed instructions skipped by dispatch
system.switch_cpus.iew.iewDispLoadInsts     409161559                       # Number of dispatched load instructions
system.switch_cpus.iew.iewDispStoreInsts    131740054                       # Number of dispatched store instructions
system.switch_cpus.iew.iewDispNonSpecInsts          236                       # Number of dispatched non-speculative instructions
system.switch_cpus.iew.iewIQFullEvents       13566618                       # Number of times the IQ has become full, causing a stall
system.switch_cpus.iew.iewLSQFullEvents        203391                       # Number of times the LSQ has become full, causing a stall
system.switch_cpus.iew.memOrderViolationEvents         2212                       # Number of memory order violations
system.switch_cpus.iew.predictedTakenIncorrect       400852                       # Number of branches that were predicted taken incorrectly
system.switch_cpus.iew.predictedNotTakenIncorrect         7676                       # Number of branches that were predicted not taken incorrectly
system.switch_cpus.iew.branchMispredicts       408528                       # Number of branch mispredicts detected at execute
system.switch_cpus.iew.iewExecutedInsts    2041988471                       # Number of executed instructions
system.switch_cpus.iew.iewExecLoadInsts     404784802                       # Number of load instructions executed
system.switch_cpus.iew.iewExecSquashedInsts      3054251                       # Number of squashed instructions skipped in execute
system.switch_cpus.iew.exec_swp                     0                       # number of swp insts executed
system.switch_cpus.iew.exec_nop                695838                       # number of nop insts executed
system.switch_cpus.iew.exec_refs            532766102                       # number of memory reference insts executed
system.switch_cpus.iew.exec_branches        102183340                       # Number of branches executed
system.switch_cpus.iew.exec_stores          127981300                       # Number of stores executed
system.switch_cpus.iew.exec_rate             0.695493                       # Inst execution rate
system.switch_cpus.iew.wb_sent             2030809605                       # cumulative count of insts sent to commit
system.switch_cpus.iew.wb_count            2029059365                       # cumulative count of insts written-back
system.switch_cpus.iew.wb_producers        1368058863                       # num instructions producing a value
system.switch_cpus.iew.wb_consumers        1822612835                       # num instructions consuming a value
system.switch_cpus.iew.wb_penalized                 0                       # number of instrctions required to write to 'other' IQ
system.switch_cpus.iew.wb_rate               0.691089                       # insts written-back per cycle
system.switch_cpus.iew.wb_fanout             0.750603                       # average fanout of values written-back
system.switch_cpus.iew.wb_penalized_rate            0                       # fraction of instructions written-back that wrote to 'other' IQ
system.switch_cpus.commit.commitSquashedInsts     73616049                       # The number of squashed insts skipped by commit
system.switch_cpus.commit.commitNonSpecStalls          450                       # The number of times commit has been forced to stall to communicate backwards
system.switch_cpus.commit.branchMispredicts       404966                       # The number of times a branch was mispredicted
system.switch_cpus.commit.committed_per_cycle::samples   2619091109                       # Number of insts commited each cycle
system.switch_cpus.commit.committed_per_cycle::mean     0.763875                       # Number of insts commited each cycle
system.switch_cpus.commit.committed_per_cycle::stdev     2.004915                       # Number of insts commited each cycle
system.switch_cpus.commit.committed_per_cycle::underflows            0      0.00%      0.00% # Number of insts commited each cycle
system.switch_cpus.commit.committed_per_cycle::0   2123444571     81.08%     81.08% # Number of insts commited each cycle
system.switch_cpus.commit.committed_per_cycle::1    145003637      5.54%     86.61% # Number of insts commited each cycle
system.switch_cpus.commit.committed_per_cycle::2     76279743      2.91%     89.52% # Number of insts commited each cycle
system.switch_cpus.commit.committed_per_cycle::3     44311994      1.69%     91.22% # Number of insts commited each cycle
system.switch_cpus.commit.committed_per_cycle::4     33602649      1.28%     92.50% # Number of insts commited each cycle
system.switch_cpus.commit.committed_per_cycle::5     18760127      0.72%     93.22% # Number of insts commited each cycle
system.switch_cpus.commit.committed_per_cycle::6     10967517      0.42%     93.63% # Number of insts commited each cycle
system.switch_cpus.commit.committed_per_cycle::7     57625060      2.20%     95.83% # Number of insts commited each cycle
system.switch_cpus.commit.committed_per_cycle::8    109095811      4.17%    100.00% # Number of insts commited each cycle
system.switch_cpus.commit.committed_per_cycle::overflows            0      0.00%    100.00% # Number of insts commited each cycle
system.switch_cpus.commit.committed_per_cycle::min_value            0                       # Number of insts commited each cycle
system.switch_cpus.commit.committed_per_cycle::max_value            8                       # Number of insts commited each cycle
system.switch_cpus.commit.committed_per_cycle::total   2619091109                       # Number of insts commited each cycle
system.switch_cpus.commit.committedInsts   2000657346                       # Number of instructions committed
system.switch_cpus.commit.committedOps     2000657346                       # Number of ops (including micro ops) committed
system.switch_cpus.commit.swp_count                 0                       # Number of s/w prefetches committed
system.switch_cpus.commit.refs              516872820                       # Number of memory references committed
system.switch_cpus.commit.loads             389474332                       # Number of loads committed
system.switch_cpus.commit.membars                 224                       # Number of memory barriers committed
system.switch_cpus.commit.branches           99903220                       # Number of branches committed
system.switch_cpus.commit.fp_insts         1203315135                       # Number of committed floating point instructions.
system.switch_cpus.commit.int_insts        1309260647                       # Number of committed integer instructions.
system.switch_cpus.commit.function_calls        18358                       # Number of function calls committed.
system.switch_cpus.commit.bw_lim_events     109095811                       # number cycles where commit BW limit reached
system.switch_cpus.commit.bw_limited                0                       # number of insts not committed due to BW limits
system.switch_cpus.rob.rob_reads           4581267916                       # The number of ROB reads
system.switch_cpus.rob.rob_writes          4161449806                       # The number of ROB writes
system.switch_cpus.timesIdled                 3786624                       # Number of times that the entire CPU went into an idle state and unscheduled itself
system.switch_cpus.idleCycles               304037974                       # Total number of cycles that the CPU has spent unscheduled due to idling
system.switch_cpus.committedInsts          2000000000                       # Number of Instructions Simulated
system.switch_cpus.committedOps            2000000000                       # Number of Ops (including micro ops) Simulated
system.switch_cpus.committedInsts_total    2000000000                       # Number of Instructions Simulated
system.switch_cpus.cpi                       1.468016                       # CPI: Cycles Per Instruction
system.switch_cpus.cpi_total                 1.468016                       # CPI: Total CPI of All Threads
system.switch_cpus.ipc                       0.681191                       # IPC: Instructions Per Cycle
system.switch_cpus.ipc_total                 0.681191                       # IPC: Total IPC of All Threads
system.switch_cpus.int_regfile_reads       1620695206                       # number of integer regfile reads
system.switch_cpus.int_regfile_writes       758847246                       # number of integer regfile writes
system.switch_cpus.fp_regfile_reads        1606226895                       # number of floating regfile reads
system.switch_cpus.fp_regfile_writes       1040263605                       # number of floating regfile writes
system.switch_cpus.misc_regfile_reads            4054                       # number of misc regfile reads
system.switch_cpus.misc_regfile_writes            500                       # number of misc regfile writes
system.l2.tags.numFaultyBlocks_VDD1              1074                       # number of faulty blocks in the cache at VDD1 (lowest)
system.l2.tags.numFaultyBlocks_VDD2              1074                       # number of faulty blocks in the cache at VDD2 (mid)
system.l2.tags.numFaultyBlocks_VDD3                 0                       # number of faulty blocks in the cache at VDD3 (highest)
system.l2.tags.blockFaultRate_VDD1           0.008194                       # Proportion of faulty blocks in the cache at VDD1
system.l2.tags.blockFaultRate_VDD2           0.008194                       # Proportion of faulty blocks in the cache at VDD2
system.l2.tags.blockFaultRate_VDD3                  0                       # Proportion of faulty blocks in the cache at VDD3
system.l2.tags.cycles_VDD1                          0                       # Total number of cycles spent on VDD1
system.l2.tags.cycles_VDD2                 3936151244                       # Total number of cycles spent on VDD2
system.l2.tags.cycles_VDD3                          0                       # Total number of cycles spent on VDD3
system.l2.tags.accessEnergy_VDD1                    0                       # Total dynamic energy dissipated at VDD1 in nJ
system.l2.tags.accessEnergy_VDD2         10450265.613130                       # Total dynamic energy dissipated at VDD2 in nJ
system.l2.tags.accessEnergy_VDD3                    0                       # Total dynamic energy dissipated at VDD3 in nJ
system.l2.tags.accessEnergy_tot          10450265.613130                       # Total dynamic energy dissipated in nJ
system.l2.tags.transitionsTo_VDD1                   0                       # Total number of transitions to VDD1
system.l2.tags.transitionsTo_VDD2                   0                       # Total number of transitions to VDD2
system.l2.tags.transitionsTo_VDD3                   0                       # Total number of transitions to VDD3
system.l2.tags.avgConsecutiveCycles_VDD1          nan                       # Average number of consecutive cycles spent at VDD1
system.l2.tags.avgConsecutiveCycles_VDD2          inf                       # Average number of consecutive cycles spent at VDD2
system.l2.tags.avgConsecutiveCycles_VDD3          nan                       # Average number of consecutive cycles spent at VDD3
system.l2.tags.proportionExecTime_VDD1              0                       # Proportion of total execution time that was spent at VDD1 for this cache
system.l2.tags.proportionExecTime_VDD2              1                       # Proportion of total execution time that was spent at VDD2 for this cache
system.l2.tags.proportionExecTime_VDD3              0                       # Proportion of total execution time that was spent at VDD3 for this cache
system.l2.tags.staticPower_avg            8751.172680                       # Average static power of this cache over the entire execution
system.l2.tags.numUnchangedFaultyTo_VDD1            0                       # Total number of unchanged (faulty) blocks during DPCS transition to VDD1
system.l2.tags.numUnchangedFaultyTo_VDD2            0                       # Total number of unchanged (faulty) blocks during DPCS transition to VDD2
system.l2.tags.numUnchangedFaultyTo_VDD3            0                       # Total number of unchanged (faulty) blocks during DPCS transition to VDD3
system.l2.tags.numFaultyWriteBacksTo_VDD1            0                       # Total number of faulty writebacks during DPCS transition to VDD1
system.l2.tags.numFaultyWriteBacksTo_VDD2            0                       # Total number of faulty writebacks during DPCS transition to VDD2
system.l2.tags.numFaultyWriteBacksTo_VDD3            0                       # Total number of faulty writebacks during DPCS transition to VDD3
system.l2.tags.numInvalidateOnlyTo_VDD1             0                       # Total number of blocks only invalidated during DPCS transition to VDD1
system.l2.tags.numInvalidateOnlyTo_VDD2             0                       # Total number of blocks only invalidated during DPCS transition to VDD2
system.l2.tags.numInvalidateOnlyTo_VDD3             0                       # Total number of blocks only invalidated during DPCS transition to VDD3
system.l2.tags.numMadeAvailableTo_VDD1              0                       # Total number of blocks made available (faulty to non-faulty) during DPCS transition to VDD1
system.l2.tags.numMadeAvailableTo_VDD2              0                       # Total number of blocks made available (faulty to non-faulty) during DPCS transition to VDD2
system.l2.tags.numMadeAvailableTo_VDD3              0                       # Total number of blocks made available (faulty to non-faulty) during DPCS transition to VDD3
system.l2.tags.numUnchangedNotFaultyTo_VDD1            0                       # Total number of blocks unchanged (not faulty) during DPCS transition to VDD1
system.l2.tags.numUnchangedNotFaultyTo_VDD2            0                       # Total number of blocks unchanged (not faulty) during DPCS transition to VDD2
system.l2.tags.numUnchangedNotFaultyTo_VDD3            0                       # Total number of blocks unchanged (not faulty) during DPCS transition to VDD3
system.l2.tags.faultyWriteBackRateTo_VDD1          nan                       # Average number of writebacks caused by faulty blocks when changing to VDD1
system.l2.tags.faultyWriteBackRateTo_VDD2          nan                       # Average number of writebacks caused by faulty blocks when changing to VDD2
system.l2.tags.faultyWriteBackRateTo_VDD3          nan                       # Average number of writebacks caused by faulty blocks when changing to VDD3
system.l2.tags.replacements                  23036490                       # number of replacements
system.l2.tags.tagsinuse                 129440.802231                       # Cycle average of tags in use
system.l2.tags.total_refs                     3222416                       # Total number of references to valid blocks.
system.l2.tags.sampled_refs                  23165812                       # Sample count of references to valid blocks.
[...]
system.cpu.dcache.tags.proportionExecTime_VDD1            0                       # Proportion of total execution time that was spent at VDD1 for this cache
system.cpu.dcache.tags.proportionExecTime_VDD2            1                       # Proportion of total execution time that was spent at VDD2 for this cache
system.cpu.dcache.tags.proportionExecTime_VDD3            0                       # Proportion of total execution time that was spent at VDD3 for this cache
system.cpu.dcache.tags.staticPower_avg     333.713930                       # Average static power of this cache over the entire execution
system.cpu.dcache.tags.numUnchangedFaultyTo_VDD1            0                       # Total number of unchanged (faulty) blocks during DPCS transition to VDD1
system.cpu.dcache.tags.numUnchangedFaultyTo_VDD2            0                       # Total number of unchanged (faulty) blocks during DPCS transition to VDD2
system.cpu.dcache.tags.numUnchangedFaultyTo_VDD3            0                       # Total number of unchanged (faulty) blocks during DPCS transition to VDD3
system.cpu.dcache.tags.numFaultyWriteBacksTo_VDD1            0                       # Total number of faulty writebacks during DPCS transition to VDD1
system.cpu.dcache.tags.numFaultyWriteBacksTo_VDD2            0                       # Total number of faulty writebacks during DPCS transition to VDD2
system.cpu.dcache.tags.numFaultyWriteBacksTo_VDD3            0                       # Total number of faulty writebacks during DPCS transition to VDD3
system.cpu.dcache.tags.numInvalidateOnlyTo_VDD1            0                       # Total number of blocks only invalidated during DPCS transition to VDD1
system.cpu.dcache.tags.numInvalidateOnlyTo_VDD2            0                       # Total number of blocks only invalidated during DPCS transition to VDD2
system.cpu.dcache.tags.numInvalidateOnlyTo_VDD3            0                       # Total number of blocks only invalidated during DPCS transition to VDD3
system.cpu.dcache.tags.numMadeAvailableTo_VDD1            0                       # Total number of blocks made available (faulty to non-faulty) during DPCS transition to VDD1
system.cpu.dcache.tags.numMadeAvailableTo_VDD2            0                       # Total number of blocks made available (faulty to non-faulty) during DPCS transition to VDD2
system.cpu.dcache.tags.numMadeAvailableTo_VDD3            0                       # Total number of blocks made available (faulty to non-faulty) during DPCS transition to VDD3
system.cpu.dcache.tags.numUnchangedNotFaultyTo_VDD1            0                       # Total number of blocks unchanged (not faulty) during DPCS transition to VDD1
system.cpu.dcache.tags.numUnchangedNotFaultyTo_VDD2            0                       # Total number of blocks unchanged (not faulty) during DPCS transition to VDD2
system.cpu.dcache.tags.numUnchangedNotFaultyTo_VDD3            0                       # Total number of blocks unchanged (not faulty) during DPCS transition to VDD3
system.cpu.dcache.tags.faultyWriteBackRateTo_VDD1          nan                       # Average number of writebacks caused by faulty blocks when changing to VDD1
system.cpu.dcache.tags.faultyWriteBackRateTo_VDD2          nan                       # Average number of writebacks caused by faulty blocks when changing to VDD2
system.cpu.dcache.tags.faultyWriteBackRateTo_VDD3          nan                       # Average number of writebacks caused by faulty blocks when changing to VDD3
system.cpu.dcache.tags.replacements          25646473                       # number of replacements
system.cpu.dcache.tags.tagsinuse                 4059                       # Cycle average of tags in use
system.cpu.dcache.tags.total_refs           401047570                       # Total number of references to valid blocks.
system.cpu.dcache.tags.sampled_refs          25650532                       # Sample count of references to valid blocks.
system.cpu.dcache.tags.avg_refs             15.635059                       # Average number of references to valid blocks.
system.cpu.dcache.tags.warmup_cycle                 0                       # Cycle when the warmup percentage was hit.
system.cpu.dcache.tags.occ_blocks::switch_cpus.data  4045.680953                       # Average occupied blocks per requestor
system.cpu.dcache.tags.occ_blocks::cpu.data    13.319047                       # Average occupied blocks per requestor
system.cpu.dcache.tags.occ_percent::switch_cpus.data     0.987715                       # Average percentage of cache occupancy
system.cpu.dcache.tags.occ_percent::cpu.data     0.003252                       # Average percentage of cache occupancy
system.cpu.dcache.tags.occ_percent::total     0.990967                       # Average percentage of cache occupancy
system.cpu.dcache.ReadReq_hits::switch_cpus.data    287105870                       # number of ReadReq hits
system.cpu.dcache.ReadReq_hits::total       287105870                       # number of ReadReq hits
system.cpu.dcache.WriteReq_hits::switch_cpus.data     94702114                       # number of WriteReq hits
system.cpu.dcache.WriteReq_hits::total       94702114                       # number of WriteReq hits
system.cpu.dcache.LoadLockedReq_hits::switch_cpus.data          223                       # number of LoadLockedReq hits
system.cpu.dcache.LoadLockedReq_hits::total          223                       # number of LoadLockedReq hits
system.cpu.dcache.StoreCondReq_hits::switch_cpus.data          224                       # number of StoreCondReq hits
system.cpu.dcache.StoreCondReq_hits::total          224                       # number of StoreCondReq hits
system.cpu.dcache.demand_hits::switch_cpus.data    381807984                       # number of demand (read+write) hits
system.cpu.dcache.demand_hits::total        381807984                       # number of demand (read+write) hits
system.cpu.dcache.overall_hits::switch_cpus.data    381807984                       # number of overall hits
system.cpu.dcache.overall_hits::total       381807984                       # number of overall hits
system.cpu.dcache.ReadReq_misses::switch_cpus.data    100245820                       # number of ReadReq misses
system.cpu.dcache.ReadReq_misses::total     100245820                       # number of ReadReq misses
system.cpu.dcache.WriteReq_misses::switch_cpus.data     32696147                       # number of WriteReq misses
system.cpu.dcache.WriteReq_misses::total     32696147                       # number of WriteReq misses
system.cpu.dcache.LoadLockedReq_misses::switch_cpus.data            1                       # number of LoadLockedReq misses
system.cpu.dcache.LoadLockedReq_misses::total            1                       # number of LoadLockedReq misses
system.cpu.dcache.demand_misses::switch_cpus.data    132941967                       # number of demand (read+write) misses
system.cpu.dcache.demand_misses::total      132941967                       # number of demand (read+write) misses
system.cpu.dcache.overall_misses::switch_cpus.data    132941967                       # number of overall misses
system.cpu.dcache.overall_misses::total     132941967                       # number of overall misses
system.cpu.dcache.ReadReq_miss_latency::switch_cpus.data 4831841914534                       # number of ReadReq miss cycles
system.cpu.dcache.ReadReq_miss_latency::total 4831841914534                       # number of ReadReq miss cycles
system.cpu.dcache.WriteReq_miss_latency::switch_cpus.data 1488645575008                       # number of WriteReq miss cycles
system.cpu.dcache.WriteReq_miss_latency::total 1488645575008                       # number of WriteReq miss cycles
system.cpu.dcache.LoadLockedReq_miss_latency::switch_cpus.data       220942                       # number of LoadLockedReq miss cycles
system.cpu.dcache.LoadLockedReq_miss_latency::total       220942                       # number of LoadLockedReq miss cycles
system.cpu.dcache.demand_miss_latency::switch_cpus.data 6320487489542                       # number of demand (read+write) miss cycles
system.cpu.dcache.demand_miss_latency::total 6320487489542                       # number of demand (read+write) miss cycles
system.cpu.dcache.overall_miss_latency::switch_cpus.data 6320487489542                       # number of overall miss cycles
system.cpu.dcache.overall_miss_latency::total 6320487489542                       # number of overall miss cycles
system.cpu.dcache.ReadReq_accesses::switch_cpus.data    387351690                       # number of ReadReq accesses(hits+misses)
system.cpu.dcache.ReadReq_accesses::total    387351690                       # number of ReadReq accesses(hits+misses)
system.cpu.dcache.WriteReq_accesses::switch_cpus.data    127398261                       # number of WriteReq accesses(hits+misses)
system.cpu.dcache.WriteReq_accesses::total    127398261                       # number of WriteReq accesses(hits+misses)
system.cpu.dcache.LoadLockedReq_accesses::switch_cpus.data          224                       # number of LoadLockedReq accesses(hits+misses)
system.cpu.dcache.LoadLockedReq_accesses::total          224                       # number of LoadLockedReq accesses(hits+misses)
system.cpu.dcache.StoreCondReq_accesses::switch_cpus.data          224                       # number of StoreCondReq accesses(hits+misses)
system.cpu.dcache.StoreCondReq_accesses::total          224                       # number of StoreCondReq accesses(hits+misses)
system.cpu.dcache.demand_accesses::switch_cpus.data    514749951                       # number of demand (read+write) accesses
system.cpu.dcache.demand_accesses::total    514749951                       # number of demand (read+write) accesses
system.cpu.dcache.overall_accesses::switch_cpus.data    514749951                       # number of overall (read+write) accesses
system.cpu.dcache.overall_accesses::total    514749951                       # number of overall (read+write) accesses
system.cpu.dcache.ReadReq_miss_rate::switch_cpus.data     0.258798                       # miss rate for ReadReq accesses
system.cpu.dcache.ReadReq_miss_rate::total     0.258798                       # miss rate for ReadReq accesses
system.cpu.dcache.WriteReq_miss_rate::switch_cpus.data     0.256645                       # miss rate for WriteReq accesses
system.cpu.dcache.WriteReq_miss_rate::total     0.256645                       # miss rate for WriteReq accesses
system.cpu.dcache.LoadLockedReq_miss_rate::switch_cpus.data     0.004464                       # miss rate for LoadLockedReq accesses
system.cpu.dcache.LoadLockedReq_miss_rate::total     0.004464                       # miss rate for LoadLockedReq accesses
system.cpu.dcache.demand_miss_rate::switch_cpus.data     0.258265                       # miss rate for demand accesses
system.cpu.dcache.demand_miss_rate::total     0.258265                       # miss rate for demand accesses
system.cpu.dcache.overall_miss_rate::switch_cpus.data     0.258265                       # miss rate for overall accesses
system.cpu.dcache.overall_miss_rate::total     0.258265                       # miss rate for overall accesses
system.cpu.dcache.ReadReq_avg_miss_latency::switch_cpus.data 48199.934067                       # average ReadReq miss latency
system.cpu.dcache.ReadReq_avg_miss_latency::total 48199.934067                       # average ReadReq miss latency
system.cpu.dcache.WriteReq_avg_miss_latency::switch_cpus.data 45529.694218                       # average WriteReq miss latency
system.cpu.dcache.WriteReq_avg_miss_latency::total 45529.694218                       # average WriteReq miss latency
system.cpu.dcache.LoadLockedReq_avg_miss_latency::switch_cpus.data       220942                       # average LoadLockedReq miss latency
system.cpu.dcache.LoadLockedReq_avg_miss_latency::total       220942                       # average LoadLockedReq miss latency
system.cpu.dcache.demand_avg_miss_latency::switch_cpus.data 47543.207252                       # average overall miss latency
system.cpu.dcache.demand_avg_miss_latency::total 47543.207252                       # average overall miss latency
system.cpu.dcache.overall_avg_miss_latency::switch_cpus.data 47543.207252                       # average overall miss latency
system.cpu.dcache.overall_avg_miss_latency::total 47543.207252                       # average overall miss latency
system.cpu.dcache.blocked_cycles::no_mshrs     67165338                       # number of cycles access was blocked
system.cpu.dcache.blocked_cycles::no_targets           81                       # number of cycles access was blocked
system.cpu.dcache.blocked::no_mshrs           1295933                       # number of cycles access was blocked
system.cpu.dcache.blocked::no_targets               1                       # number of cycles access was blocked
system.cpu.dcache.avg_blocked_cycles::no_mshrs    51.827786                       # average number of cycles each access was blocked
system.cpu.dcache.avg_blocked_cycles::no_targets           81                       # average number of cycles each access was blocked
system.cpu.dcache.fast_writes                       0                       # number of fast writes performed
system.cpu.dcache.cache_copies                      0                       # number of cache copies performed
system.cpu.dcache.writebacks::writebacks      5454664                       # number of writebacks
system.cpu.dcache.writebacks::total           5454664                       # number of writebacks
system.cpu.dcache.ReadReq_mshr_hits::switch_cpus.data     79476062                       # number of ReadReq MSHR hits
system.cpu.dcache.ReadReq_mshr_hits::total     79476062                       # number of ReadReq MSHR hits
system.cpu.dcache.WriteReq_mshr_hits::switch_cpus.data     27819431                       # number of WriteReq MSHR hits
system.cpu.dcache.WriteReq_mshr_hits::total     27819431                       # number of WriteReq MSHR hits
system.cpu.dcache.demand_mshr_hits::switch_cpus.data    107295493                       # number of demand (read+write) MSHR hits
system.cpu.dcache.demand_mshr_hits::total    107295493                       # number of demand (read+write) MSHR hits
system.cpu.dcache.overall_mshr_hits::switch_cpus.data    107295493                       # number of overall MSHR hits
system.cpu.dcache.overall_mshr_hits::total    107295493                       # number of overall MSHR hits
system.cpu.dcache.ReadReq_mshr_misses::switch_cpus.data     20769758                       # number of ReadReq MSHR misses
system.cpu.dcache.ReadReq_mshr_misses::total     20769758                       # number of ReadReq MSHR misses
system.cpu.dcache.WriteReq_mshr_misses::switch_cpus.data      4876716                       # number of WriteReq MSHR misses
system.cpu.dcache.WriteReq_mshr_misses::total      4876716                       # number of WriteReq MSHR misses
system.cpu.dcache.LoadLockedReq_mshr_misses::switch_cpus.data            1                       # number of LoadLockedReq MSHR misses
system.cpu.dcache.LoadLockedReq_mshr_misses::total            1                       # number of LoadLockedReq MSHR misses
system.cpu.dcache.demand_mshr_misses::switch_cpus.data     25646474                       # number of demand (read+write) MSHR misses
system.cpu.dcache.demand_mshr_misses::total     25646474                       # number of demand (read+write) MSHR misses
system.cpu.dcache.overall_mshr_misses::switch_cpus.data     25646474                       # number of overall MSHR misses
system.cpu.dcache.overall_mshr_misses::total     25646474                       # number of overall MSHR misses
system.cpu.dcache.ReadReq_mshr_miss_latency::switch_cpus.data 1029140532462                       # number of ReadReq MSHR miss cycles
system.cpu.dcache.ReadReq_mshr_miss_latency::total 1029140532462                       # number of ReadReq MSHR miss cycles
system.cpu.dcache.WriteReq_mshr_miss_latency::switch_cpus.data 317310751504                       # number of WriteReq MSHR miss cycles
system.cpu.dcache.WriteReq_mshr_miss_latency::total 317310751504                       # number of WriteReq MSHR miss cycles
system.cpu.dcache.LoadLockedReq_mshr_miss_latency::switch_cpus.data       219284                       # number of LoadLockedReq MSHR miss cycles
system.cpu.dcache.LoadLockedReq_mshr_miss_latency::total       219284                       # number of LoadLockedReq MSHR miss cycles
system.cpu.dcache.demand_mshr_miss_latency::switch_cpus.data 1346451283966                       # number of demand (read+write) MSHR miss cycles
system.cpu.dcache.demand_mshr_miss_latency::total 1346451283966                       # number of demand (read+write) MSHR miss cycles
system.cpu.dcache.overall_mshr_miss_latency::switch_cpus.data 1346451283966                       # number of overall MSHR miss cycles
system.cpu.dcache.overall_mshr_miss_latency::total 1346451283966                       # number of overall MSHR miss cycles
system.cpu.dcache.ReadReq_mshr_miss_rate::switch_cpus.data     0.053620                       # mshr miss rate for ReadReq accesses
system.cpu.dcache.ReadReq_mshr_miss_rate::total     0.053620                       # mshr miss rate for ReadReq accesses
system.cpu.dcache.WriteReq_mshr_miss_rate::switch_cpus.data     0.038279                       # mshr miss rate for WriteReq accesses
system.cpu.dcache.WriteReq_mshr_miss_rate::total     0.038279                       # mshr miss rate for WriteReq accesses
system.cpu.dcache.LoadLockedReq_mshr_miss_rate::switch_cpus.data     0.004464                       # mshr miss rate for LoadLockedReq accesses
system.cpu.dcache.LoadLockedReq_mshr_miss_rate::total     0.004464                       # mshr miss rate for LoadLockedReq accesses
system.cpu.dcache.demand_mshr_miss_rate::switch_cpus.data     0.049823                       # mshr miss rate for demand accesses
system.cpu.dcache.demand_mshr_miss_rate::total     0.049823                       # mshr miss rate for demand accesses
system.cpu.dcache.overall_mshr_miss_rate::switch_cpus.data     0.049823                       # mshr miss rate for overall accesses
system.cpu.dcache.overall_mshr_miss_rate::total     0.049823                       # mshr miss rate for overall accesses
system.cpu.dcache.ReadReq_avg_mshr_miss_latency::switch_cpus.data 49549.952988                       # average ReadReq mshr miss latency
system.cpu.dcache.ReadReq_avg_mshr_miss_latency::total 49549.952988                       # average ReadReq mshr miss latency
system.cpu.dcache.WriteReq_avg_mshr_miss_latency::switch_cpus.data 65066.481522                       # average WriteReq mshr miss latency
system.cpu.dcache.WriteReq_avg_mshr_miss_latency::total 65066.481522                       # average WriteReq mshr miss latency
system.cpu.dcache.LoadLockedReq_avg_mshr_miss_latency::switch_cpus.data       219284                       # average LoadLockedReq mshr miss latency
system.cpu.dcache.LoadLockedReq_avg_mshr_miss_latency::total       219284                       # average LoadLockedReq mshr miss latency
system.cpu.dcache.demand_avg_mshr_miss_latency::switch_cpus.data 52500.444465                       # average overall mshr miss latency
system.cpu.dcache.demand_avg_mshr_miss_latency::total 52500.444465                       # average overall mshr miss latency
system.cpu.dcache.overall_avg_mshr_miss_latency::switch_cpus.data 52500.444465                       # average overall mshr miss latency
system.cpu.dcache.overall_avg_mshr_miss_latency::total 52500.444465                       # average overall mshr miss latency
system.cpu.dcache.no_allocate_misses                0                       # Number of misses that were no-allocate

---------- End Simulation Statistics   ----------
