
---------- Begin Simulation Statistics ----------
sim_seconds                                  2.298571                       # Number of seconds simulated
sim_ticks                                2298571463000                       # Number of ticks simulated
final_tick                               2798687806000                       # Number of ticks from beginning of simulation (restored from checkpoints and never reset)
sim_freq                                 1000000000000                       # Frequency of simulated ticks
host_inst_rate                                 185543                       # Simulator instruction rate (inst/s)
host_op_rate                                   185543                       # Simulator op (including micro ops) rate (op/s)
host_tick_rate                              142161349                       # Simulator tick rate (ticks/s)
host_mem_usage                                2203940                       # Number of bytes of host memory used
host_seconds                                 16168.75                       # Real time elapsed on the host
sim_insts                                  3000000007                       # Number of instructions simulated
sim_ops                                    3000000007                       # Number of ops (including micro ops) simulated
system.mem_ctrls.bytes_read::switch_cpus.inst           64                       # Number of bytes read from this memory
system.mem_ctrls.bytes_read::switch_cpus.data   4065221120                       # Number of bytes read from this memory
system.mem_ctrls.bytes_read::total         4065221184                       # Number of bytes read from this memory
system.mem_ctrls.bytes_inst_read::switch_cpus.inst           64                       # Number of instructions bytes read from this memory
system.mem_ctrls.bytes_inst_read::total            64                       # Number of instructions bytes read from this memory
system.mem_ctrls.bytes_written::writebacks   3048920576                       # Number of bytes written to this memory
system.mem_ctrls.bytes_written::total      3048920576                       # Number of bytes written to this memory
system.mem_ctrls.num_reads::switch_cpus.inst            1                       # Number of read requests responded to by this memory
system.mem_ctrls.num_reads::switch_cpus.data     63519080                       # Number of read requests responded to by this memory
system.mem_ctrls.num_reads::total            63519081                       # Number of read requests responded to by this memory
system.mem_ctrls.num_writes::writebacks      47639384                       # Number of write requests responded to by this memory
system.mem_ctrls.num_writes::total           47639384                       # Number of write requests responded to by this memory
system.mem_ctrls.bw_read::switch_cpus.inst           28                       # Total read bandwidth from this memory (bytes/s)
system.mem_ctrls.bw_read::switch_cpus.data   1768585918                       # Total read bandwidth from this memory (bytes/s)
system.mem_ctrls.bw_read::total            1768585945                       # Total read bandwidth from this memory (bytes/s)
system.mem_ctrls.bw_inst_read::switch_cpus.inst           28                       # Instruction read bandwidth from this memory (bytes/s)
system.mem_ctrls.bw_inst_read::total               28                       # Instruction read bandwidth from this memory (bytes/s)
system.mem_ctrls.bw_write::writebacks      1326441499                       # Write bandwidth from this memory (bytes/s)
system.mem_ctrls.bw_write::total           1326441499                       # Write bandwidth from this memory (bytes/s)
system.mem_ctrls.bw_total::writebacks      1326441499                       # Total bandwidth to/from this memory (bytes/s)
system.mem_ctrls.bw_total::switch_cpus.inst           28                       # Total bandwidth to/from this memory (bytes/s)
system.mem_ctrls.bw_total::switch_cpus.data   1768585918                       # Total bandwidth to/from this memory (bytes/s)
system.mem_ctrls.bw_total::total           3095027444                       # Total bandwidth to/from this memory (bytes/s)
system.mem_ctrls.readReqs                    63519081                       # Total number of read requests accepted by DRAM controller
system.mem_ctrls.writeReqs                   47639384                       # Total number of write requests accepted by DRAM controller
system.mem_ctrls.readBursts                  63519081                       # Total number of DRAM read bursts. Each DRAM read request translates to either one or multiple DRAM read bursts
system.mem_ctrls.writeBursts                 47639384                       # Total number of DRAM write bursts. Each DRAM write request translates to either one or multiple DRAM write bursts
system.mem_ctrls.bytesRead                 4065221184                       # Total number of bytes read from memory
system.mem_ctrls.bytesWritten              3048920576                       # Total number of bytes written to memory
system.mem_ctrls.bytesConsumedRd           4065221184                       # bytesRead derated as per pkt->getSize()
system.mem_ctrls.bytesConsumedWr           3048920576                       # bytesWritten derated as per pkt->getSize()
system.mem_ctrls.servicedByWrQ                      0                       # Number of DRAM read bursts serviced by write Q
system.mem_ctrls.neitherReadNorWrite                0                       # Reqs where no action is needed
system.mem_ctrls.perBankRdReqs::0             3969838                       # Track reads on a per bank basis
system.mem_ctrls.perBankRdReqs::1             3969847                       # Track reads on a per bank basis
system.mem_ctrls.perBankRdReqs::2             3969625                       # Track reads on a per bank basis
system.mem_ctrls.perBankRdReqs::3             3969672                       # Track reads on a per bank basis
system.mem_ctrls.perBankRdReqs::4             3969736                       # Track reads on a per bank basis
system.mem_ctrls.perBankRdReqs::5             3969851                       # Track reads on a per bank basis
system.mem_ctrls.perBankRdReqs::6             3969743                       # Track reads on a per bank basis
system.mem_ctrls.perBankRdReqs::7             3969871                       # Track reads on a per bank basis
system.mem_ctrls.perBankRdReqs::8             3969900                       # Track reads on a per bank basis
system.mem_ctrls.perBankRdReqs::9             3971179                       # Track reads on a per bank basis
system.mem_ctrls.perBankRdReqs::10            3970052                       # Track reads on a per bank basis
system.mem_ctrls.perBankRdReqs::11            3970036                       # Track reads on a per bank basis
system.mem_ctrls.perBankRdReqs::12            3970015                       # Track reads on a per bank basis
system.mem_ctrls.perBankRdReqs::13            3969852                       # Track reads on a per bank basis
system.mem_ctrls.perBankRdReqs::14            3969970                       # Track reads on a per bank basis
system.mem_ctrls.perBankRdReqs::15            3969894                       # Track reads on a per bank basis
system.mem_ctrls.perBankWrReqs::0             2977321                       # Track writes on a per bank basis
system.mem_ctrls.perBankWrReqs::1             2977334                       # Track writes on a per bank basis
system.mem_ctrls.perBankWrReqs::2             2977172                       # Track writes on a per bank basis
system.mem_ctrls.perBankWrReqs::3             2977286                       # Track writes on a per bank basis
system.mem_ctrls.perBankWrReqs::4             2977396                       # Track writes on a per bank basis
system.mem_ctrls.perBankWrReqs::5             2977714                       # Track writes on a per bank basis
system.mem_ctrls.perBankWrReqs::6             2977569                       # Track writes on a per bank basis
system.mem_ctrls.perBankWrReqs::7             2977511                       # Track writes on a per bank basis
system.mem_ctrls.perBankWrReqs::8             2977516                       # Track writes on a per bank basis
system.mem_ctrls.perBankWrReqs::9             2977578                       # Track writes on a per bank basis
system.mem_ctrls.perBankWrReqs::10            2977780                       # Track writes on a per bank basis
system.mem_ctrls.perBankWrReqs::11            2977524                       # Track writes on a per bank basis
system.mem_ctrls.perBankWrReqs::12            2977503                       # Track writes on a per bank basis
system.mem_ctrls.perBankWrReqs::13            2977340                       # Track writes on a per bank basis
system.mem_ctrls.perBankWrReqs::14            2977458                       # Track writes on a per bank basis
system.mem_ctrls.perBankWrReqs::15            2977382                       # Track writes on a per bank basis
system.mem_ctrls.numRdRetry                         0                       # Number of times rd buffer was full causing retry
system.mem_ctrls.numWrRetry                         0                       # Number of times wr buffer was full causing retry
system.mem_ctrls.totGap                  2298571259000                       # Total gap between requests
system.mem_ctrls.readPktSize::0                     0                       # Categorize read packet sizes
system.mem_ctrls.readPktSize::1                     0                       # Categorize read packet sizes
system.mem_ctrls.readPktSize::2                     0                       # Categorize read packet sizes
system.mem_ctrls.readPktSize::3                     0                       # Categorize read packet sizes
system.mem_ctrls.readPktSize::4                     0                       # Categorize read packet sizes
system.mem_ctrls.readPktSize::5                     0                       # Categorize read packet sizes
system.mem_ctrls.readPktSize::6              63519081                       # Categorize read packet sizes
system.mem_ctrls.writePktSize::0                    0                       # Categorize write packet sizes
system.mem_ctrls.writePktSize::1                    0                       # Categorize write packet sizes
system.mem_ctrls.writePktSize::2                    0                       # Categorize write packet sizes
system.mem_ctrls.writePktSize::3                    0                       # Categorize write packet sizes
system.mem_ctrls.writePktSize::4                    0                       # Categorize write packet sizes
system.mem_ctrls.writePktSize::5                    0                       # Categorize write packet sizes
system.mem_ctrls.writePktSize::6             47639384                       # Categorize write packet sizes
system.mem_ctrls.rdQLenPdf::0                20279529                       # What read queue length does an incoming req see
system.mem_ctrls.rdQLenPdf::1                19937217                       # What read queue length does an incoming req see
system.mem_ctrls.rdQLenPdf::2                13515573                       # What read queue length does an incoming req see
system.mem_ctrls.rdQLenPdf::3                 9786762                       # What read queue length does an incoming req see
system.mem_ctrls.rdQLenPdf::4                       0                       # What read queue length does an incoming req see
system.mem_ctrls.rdQLenPdf::5                       0                       # What read queue length does an incoming req see
system.mem_ctrls.rdQLenPdf::6                       0                       # What read queue length does an incoming req see
system.mem_ctrls.rdQLenPdf::7                       0                       # What read queue length does an incoming req see
system.mem_ctrls.rdQLenPdf::8                       0                       # What read queue length does an incoming req see
system.mem_ctrls.rdQLenPdf::9                       0                       # What read queue length does an incoming req see
system.mem_ctrls.rdQLenPdf::10                      0                       # What read queue length does an incoming req see
system.mem_ctrls.rdQLenPdf::11                      0                       # What read queue length does an incoming req see
system.mem_ctrls.rdQLenPdf::12                      0                       # What read queue length does an incoming req see
system.mem_ctrls.rdQLenPdf::13                      0                       # What read queue length does an incoming req see
system.mem_ctrls.rdQLenPdf::14                      0                       # What read queue length does an incoming req see
system.mem_ctrls.rdQLenPdf::15                      0                       # What read queue length does an incoming req see
system.mem_ctrls.rdQLenPdf::16                      0                       # What read queue length does an incoming req see
system.mem_ctrls.rdQLenPdf::17                      0                       # What read queue length does an incoming req see
system.mem_ctrls.rdQLenPdf::18                      0                       # What read queue length does an incoming req see
system.mem_ctrls.rdQLenPdf::19                      0                       # What read queue length does an incoming req see
system.mem_ctrls.rdQLenPdf::20                      0                       # What read queue length does an incoming req see
system.mem_ctrls.rdQLenPdf::21                      0                       # What read queue length does an incoming req see
system.mem_ctrls.rdQLenPdf::22                      0                       # What read queue length does an incoming req see
system.mem_ctrls.rdQLenPdf::23                      0                       # What read queue length does an incoming req see
system.mem_ctrls.rdQLenPdf::24                      0                       # What read queue length does an incoming req see
system.mem_ctrls.rdQLenPdf::25                      0                       # What read queue length does an incoming req see
system.mem_ctrls.rdQLenPdf::26                      0                       # What read queue length does an incoming req see
system.mem_ctrls.rdQLenPdf::27                      0                       # What read queue length does an incoming req see
system.mem_ctrls.rdQLenPdf::28                      0                       # What read queue length does an incoming req see
system.mem_ctrls.rdQLenPdf::29                      0                       # What read queue length does an incoming req see
system.mem_ctrls.rdQLenPdf::30                      0                       # What read queue length does an incoming req see
system.mem_ctrls.rdQLenPdf::31                      0                       # What read queue length does an incoming req see
system.mem_ctrls.wrQLenPdf::0                 1058464                       # What write queue length does an incoming req see
system.mem_ctrls.wrQLenPdf::1                 1853224                       # What write queue length does an incoming req see
system.mem_ctrls.wrQLenPdf::2                 2036705                       # What write queue length does an incoming req see
system.mem_ctrls.wrQLenPdf::3                 2069509                       # What write queue length does an incoming req see
system.mem_ctrls.wrQLenPdf::4                 2071271                       # What write queue length does an incoming req see
system.mem_ctrls.wrQLenPdf::5                 2071278                       # What write queue length does an incoming req see
system.mem_ctrls.wrQLenPdf::6                 2071278                       # What write queue length does an incoming req see
system.mem_ctrls.wrQLenPdf::7                 2071278                       # What write queue length does an incoming req see
system.mem_ctrls.wrQLenPdf::8                 2071278                       # What write queue length does an incoming req see
system.mem_ctrls.wrQLenPdf::9                 2071278                       # What write queue length does an incoming req see
system.mem_ctrls.wrQLenPdf::10                2071278                       # What write queue length does an incoming req see
system.mem_ctrls.wrQLenPdf::11                2071278                       # What write queue length does an incoming req see
system.mem_ctrls.wrQLenPdf::12                2071278                       # What write queue length does an incoming req see
system.mem_ctrls.wrQLenPdf::13                2071277                       # What write queue length does an incoming req see
system.mem_ctrls.wrQLenPdf::14                2071277                       # What write queue length does an incoming req see
system.mem_ctrls.wrQLenPdf::15                2071277                       # What write queue length does an incoming req see
system.mem_ctrls.wrQLenPdf::16                2071277                       # What write queue length does an incoming req see
system.mem_ctrls.wrQLenPdf::17                2071277                       # What write queue length does an incoming req see
system.mem_ctrls.wrQLenPdf::18                2071277                       # What write queue length does an incoming req see
system.mem_ctrls.wrQLenPdf::19                2071277                       # What write queue length does an incoming req see
system.mem_ctrls.wrQLenPdf::20                2071277                       # What write queue length does an incoming req see
system.mem_ctrls.wrQLenPdf::21                2071277                       # What write queue length does an incoming req see
system.mem_ctrls.wrQLenPdf::22                2071277                       # What write queue length does an incoming req see
system.mem_ctrls.wrQLenPdf::23                1012814                       # What write queue length does an incoming req see
system.mem_ctrls.wrQLenPdf::24                 218054                       # What write queue length does an incoming req see
system.mem_ctrls.wrQLenPdf::25                  34573                       # What write queue length does an incoming req see
system.mem_ctrls.wrQLenPdf::26                   1769                       # What write queue length does an incoming req see
system.mem_ctrls.wrQLenPdf::27                      7                       # What write queue length does an incoming req see
system.mem_ctrls.wrQLenPdf::28                      0                       # What write queue length does an incoming req see
system.mem_ctrls.wrQLenPdf::29                      0                       # What write queue length does an incoming req see
system.mem_ctrls.wrQLenPdf::30                      0                       # What write queue length does an incoming req see
system.mem_ctrls.wrQLenPdf::31                      0                       # What write queue length does an incoming req see
system.mem_ctrls.bytesPerActivate::samples     27940756                       # Bytes accessed per row activation
system.mem_ctrls.bytesPerActivate::mean    254.615074                       # Bytes accessed per row activation
system.mem_ctrls.bytesPerActivate::gmean   192.282904                       # Bytes accessed per row activation
system.mem_ctrls.bytesPerActivate::stdev   297.361646                       # Bytes accessed per row activation
system.mem_ctrls.bytesPerActivate::64-65      5735116     20.53%     20.53% # Bytes accessed per row activation
system.mem_ctrls.bytesPerActivate::128-129      4235290     15.16%     35.68% # Bytes accessed per row activation
system.mem_ctrls.bytesPerActivate::192-193      5221349     18.69%     54.37% # Bytes accessed per row activation
system.mem_ctrls.bytesPerActivate::256-257      3136565     11.23%     65.60% # Bytes accessed per row activation
system.mem_ctrls.bytesPerActivate::320-321      3113268     11.14%     76.74% # Bytes accessed per row activation
system.mem_ctrls.bytesPerActivate::384-385      3981825     14.25%     90.99% # Bytes accessed per row activation
system.mem_ctrls.bytesPerActivate::448-449      1161680      4.16%     95.15% # Bytes accessed per row activation
system.mem_ctrls.bytesPerActivate::512-513       870633      3.12%     98.26% # Bytes accessed per row activation
system.mem_ctrls.bytesPerActivate::576-577       177505      0.64%     98.90% # Bytes accessed per row activation
system.mem_ctrls.bytesPerActivate::640-641        26879      0.10%     99.00% # Bytes accessed per row activation
system.mem_ctrls.bytesPerActivate::704-705         4090      0.01%     99.01% # Bytes accessed per row activation
system.mem_ctrls.bytesPerActivate::768-769         2004      0.01%     99.02% # Bytes accessed per row activation
system.mem_ctrls.bytesPerActivate::832-833         1566      0.01%     99.02% # Bytes accessed per row activation
system.mem_ctrls.bytesPerActivate::896-897          648      0.00%     99.03% # Bytes accessed per row activation
system.mem_ctrls.bytesPerActivate::960-961          306      0.00%     99.03% # Bytes accessed per row activation
system.mem_ctrls.bytesPerActivate::1024-1025          503      0.00%     99.03% # Bytes accessed per row activation
system.mem_ctrls.bytesPerActivate::1088-1089          327      0.00%     99.03% # Bytes accessed per row activation
system.mem_ctrls.bytesPerActivate::1152-1153          416      0.00%     99.03% # Bytes accessed per row activation
system.mem_ctrls.bytesPerActivate::1216-1217          613      0.00%     99.03% # Bytes accessed per row activation
system.mem_ctrls.bytesPerActivate::1280-1281          437      0.00%     99.03% # Bytes accessed per row activation
system.mem_ctrls.bytesPerActivate::1344-1345          775      0.00%     99.04% # Bytes accessed per row activation
system.mem_ctrls.bytesPerActivate::1408-1409          952      0.00%     99.04% # Bytes accessed per row activation
system.mem_ctrls.bytesPerActivate::1472-1473          940      0.00%     99.04% # Bytes accessed per row activation
system.mem_ctrls.bytesPerActivate::1536-1537          757      0.00%     99.05% # Bytes accessed per row activation
system.mem_ctrls.bytesPerActivate::1600-1601          514      0.00%     99.05% # Bytes accessed per row activation
system.mem_ctrls.bytesPerActivate::1664-1665          332      0.00%     99.05% # Bytes accessed per row activation
system.mem_ctrls.bytesPerActivate::1728-1729          367      0.00%     99.05% # Bytes accessed per row activation
system.mem_ctrls.bytesPerActivate::1792-1793          394      0.00%     99.05% # Bytes accessed per row activation
system.mem_ctrls.bytesPerActivate::1856-1857          396      0.00%     99.05% # Bytes accessed per row activation
system.mem_ctrls.bytesPerActivate::1920-1921          344      0.00%     99.06% # Bytes accessed per row activation
system.mem_ctrls.bytesPerActivate::1984-1985        27938      0.10%     99.16% # Bytes accessed per row activation
system.mem_ctrls.bytesPerActivate::2048-2049        27872      0.10%     99.26% # Bytes accessed per row activation
system.mem_ctrls.bytesPerActivate::2112-2113        15071      0.05%     99.31% # Bytes accessed per row activation
system.mem_ctrls.bytesPerActivate::2176-2177          691      0.00%     99.31% # Bytes accessed per row activation
system.mem_ctrls.bytesPerActivate::2240-2241          443      0.00%     99.31% # Bytes accessed per row activation
system.mem_ctrls.bytesPerActivate::2304-2305          580      0.00%     99.32% # Bytes accessed per row activation
system.mem_ctrls.bytesPerActivate::2368-2369          445      0.00%     99.32% # Bytes accessed per row activation
system.mem_ctrls.bytesPerActivate::2432-2433          353      0.00%     99.32% # Bytes accessed per row activation
system.mem_ctrls.bytesPerActivate::2496-2497          230      0.00%     99.32% # Bytes accessed per row activation
system.mem_ctrls.bytesPerActivate::2560-2561          296      0.00%     99.32% # Bytes accessed per row activation
system.mem_ctrls.bytesPerActivate::2624-2625          292      0.00%     99.32% # Bytes accessed per row activation
system.mem_ctrls.bytesPerActivate::2688-2689          116      0.00%     99.32% # Bytes accessed per row activation
system.mem_ctrls.bytesPerActivate::2752-2753          293      0.00%     99.32% # Bytes accessed per row activation
system.mem_ctrls.bytesPerActivate::2816-2817          166      0.00%     99.32% # Bytes accessed per row activation
system.mem_ctrls.bytesPerActivate::2880-2881         3836      0.01%     99.34% # Bytes accessed per row activation
system.mem_ctrls.bytesPerActivate::2944-2945         3672      0.01%     99.35% # Bytes accessed per row activation
system.mem_ctrls.bytesPerActivate::3008-3009        11273      0.04%     99.39% # Bytes accessed per row activation
system.mem_ctrls.bytesPerActivate::3072-3073         7476      0.03%     99.42% # Bytes accessed per row activation
system.mem_ctrls.bytesPerActivate::3136-3137        11244      0.04%     99.46% # Bytes accessed per row activation
system.mem_ctrls.bytesPerActivate::3200-3201        13692      0.05%     99.51% # Bytes accessed per row activation
system.mem_ctrls.bytesPerActivate::3264-3265        47345      0.17%     99.68% # Bytes accessed per row activation
system.mem_ctrls.bytesPerActivate::3328-3329        59743      0.21%     99.89% # Bytes accessed per row activation
system.mem_ctrls.bytesPerActivate::3392-3393        29516      0.11%    100.00% # Bytes accessed per row activation
system.mem_ctrls.bytesPerActivate::3456-3457         1233      0.00%    100.00% # Bytes accessed per row activation
system.mem_ctrls.bytesPerActivate::3520-3521            2      0.00%    100.00% # Bytes accessed per row activation
system.mem_ctrls.bytesPerActivate::3584-3585            2      0.00%    100.00% # Bytes accessed per row activation
system.mem_ctrls.bytesPerActivate::3648-3649            2      0.00%    100.00% # Bytes accessed per row activation
system.mem_ctrls.bytesPerActivate::4032-4033            2      0.00%    100.00% # Bytes accessed per row activation
system.mem_ctrls.bytesPerActivate::4352-4353            2      0.00%    100.00% # Bytes accessed per row activation
system.mem_ctrls.bytesPerActivate::4800-4801            2      0.00%    100.00% # Bytes accessed per row activation
system.mem_ctrls.bytesPerActivate::4864-4865            2      0.00%    100.00% # Bytes accessed per row activation
system.mem_ctrls.bytesPerActivate::4928-4929            4      0.00%    100.00% # Bytes accessed per row activation
system.mem_ctrls.bytesPerActivate::5056-5057            2      0.00%    100.00% # Bytes accessed per row activation
system.mem_ctrls.bytesPerActivate::5248-5249            2      0.00%    100.00% # Bytes accessed per row activation
system.mem_ctrls.bytesPerActivate::5952-5953            4      0.00%    100.00% # Bytes accessed per row activation
system.mem_ctrls.bytesPerActivate::6016-6017            1      0.00%    100.00% # Bytes accessed per row activation
system.mem_ctrls.bytesPerActivate::6272-6273            1      0.00%    100.00% # Bytes accessed per row activation
system.mem_ctrls.bytesPerActivate::6400-6401            2      0.00%    100.00% # Bytes accessed per row activation
system.mem_ctrls.bytesPerActivate::6464-6465            2      0.00%    100.00% # Bytes accessed per row activation
system.mem_ctrls.bytesPerActivate::6528-6529           44      0.00%    100.00% # Bytes accessed per row activation
system.mem_ctrls.bytesPerActivate::6592-6593           27      0.00%    100.00% # Bytes accessed per row activation
system.mem_ctrls.bytesPerActivate::6720-6721            2      0.00%    100.00% # Bytes accessed per row activation
system.mem_ctrls.bytesPerActivate::8192-8193           44      0.00%    100.00% # Bytes accessed per row activation
system.mem_ctrls.bytesPerActivate::total     27940756                       # Bytes accessed per row activation
system.mem_ctrls.totQLat                 1987194520000                       # Total cycles spent in queuing delays
system.mem_ctrls.totMemAccLat            3497295318750                       # Sum of mem lat for all requests
system.mem_ctrls.totBusLat               317595405000                       # Total cycles spent in databus access
system.mem_ctrls.totBankLat              1192505393750                       # Total cycles spent in bank access
system.mem_ctrls.avgQLat                     31285.00                       # Average queueing delay per request
system.mem_ctrls.avgBankLat                  18773.97                       # Average bank access latency per request
system.mem_ctrls.avgBusLat                    5000.00                       # Average bus latency per request
system.mem_ctrls.avgMemAccLat                55058.97                       # Average memory access latency
system.mem_ctrls.avgRdBW                      1768.59                       # Average achieved read bandwidth in MB/s
system.mem_ctrls.avgWrBW                      1326.44                       # Average achieved write bandwidth in MB/s
system.mem_ctrls.avgConsumedRdBW              1768.59                       # Average consumed read bandwidth in MB/s
system.mem_ctrls.avgConsumedWrBW              1326.44                       # Average consumed write bandwidth in MB/s
system.mem_ctrls.peakBW                      12800.00                       # Theoretical peak bandwidth in MB/s
system.mem_ctrls.busUtil                        24.18                       # Data bus utilization in percentage
system.mem_ctrls.avgRdQLen                       1.52                       # Average read queue length over time
system.mem_ctrls.avgWrQLen                       9.30                       # Average write queue length over time
system.mem_ctrls.readRowHits                 46486149                       # Number of row buffer hits during reads
system.mem_ctrls.writeRowHits                36731547                       # Number of row buffer hits during writes
system.mem_ctrls.readRowHitRate                 73.18                       # Row buffer hit rate for reads
system.mem_ctrls.writeRowHitRate                77.10                       # Row buffer hit rate for writes
system.mem_ctrls.avgGap                      20678.33                       # Average gap between requests
system.membus.throughput                   3095027444                       # Throughput (bytes/s)
system.membus.trans_dist::ReadReq            15879909                       # Transaction distribution
system.membus.trans_dist::ReadResp           15879909                       # Transaction distribution
system.membus.trans_dist::Writeback          47639384                       # Transaction distribution
system.membus.trans_dist::ReadExReq          47639172                       # Transaction distribution
system.membus.trans_dist::ReadExResp         47639172                       # Transaction distribution
system.membus.pkt_count_system.l2.mem_side::system.mem_ctrls.port    174677546                       # Packet count per connected master and slave (bytes)
system.membus.pkt_count::total              174677546                       # Packet count per connected master and slave (bytes)
system.membus.tot_pkt_size_system.l2.mem_side::system.mem_ctrls.port   7114141760                       # Cumulative packet size per connected master and slave (bytes)
system.membus.tot_pkt_size::total          7114141760                       # Cumulative packet size per connected master and slave (bytes)
system.membus.data_through_bus             7114141760                       # Total data (bytes)
system.membus.snoop_data_through_bus                0                       # Total snoop data (bytes)
system.membus.reqLayer0.occupancy        246136768500                       # Layer occupancy (ticks)
system.membus.reqLayer0.utilization              10.7                       # Layer utilization (%)
system.membus.respLayer1.occupancy       300457402750                       # Layer occupancy (ticks)
system.membus.respLayer1.utilization             13.1                       # Layer utilization (%)
system.switch_cpus.branchPred.lookups       205527560                       # Number of BP lookups
system.switch_cpus.branchPred.condPredicted    145869541                       # Number of conditional branches predicted
system.switch_cpus.branchPred.condIncorrect        84812                       # Number of conditional branches incorrect
system.switch_cpus.branchPred.BTBLookups    102297769                       # Number of BTB lookups
system.switch_cpus.branchPred.BTBHits       102297761                       # Number of BTB hits
system.switch_cpus.branchPred.BTBCorrect            0                       # Number of correct BTB predictions (this stat may not work properly.
system.switch_cpus.branchPred.BTBHitPct     99.999992                       # BTB Hit Percentage
system.switch_cpus.branchPred.usedRAS              32                       # Number of times the RAS was used to get a target.
system.switch_cpus.branchPred.RASInCorrect            1                       # Number of incorrect RAS predictions.
system.switch_cpus.dtb.fetch_hits                   0                       # ITB hits
system.switch_cpus.dtb.fetch_misses                 0                       # ITB misses
system.switch_cpus.dtb.fetch_acv                    0                       # ITB acv
system.switch_cpus.dtb.fetch_accesses               0                       # ITB accesses
system.switch_cpus.dtb.read_hits           1024593768                       # DTB read hits
system.switch_cpus.dtb.read_misses             888235                       # DTB read misses
system.switch_cpus.dtb.read_acv                     0                       # DTB read access violations
system.switch_cpus.dtb.read_accesses       1025482003                       # DTB read accesses
system.switch_cpus.dtb.write_hits           207917048                       # DTB write hits
system.switch_cpus.dtb.write_misses            425375                       # DTB write misses
system.switch_cpus.dtb.write_acv                    0                       # DTB write access violations
system.switch_cpus.dtb.write_accesses       208342423                       # DTB write accesses
system.switch_cpus.dtb.data_hits           1232510816                       # DTB hits
system.switch_cpus.dtb.data_misses            1313610                       # DTB misses
system.switch_cpus.dtb.data_acv                     0                       # DTB access violations
system.switch_cpus.dtb.data_accesses       1233824426                       # DTB accesses
system.switch_cpus.itb.fetch_hits           860206543                       # ITB hits
system.switch_cpus.itb.fetch_misses                 4                       # ITB misses
system.switch_cpus.itb.fetch_acv                    0                       # ITB acv
system.switch_cpus.itb.fetch_accesses       860206547                       # ITB accesses
system.switch_cpus.itb.read_hits                    0                       # DTB read hits
system.switch_cpus.itb.read_misses                  0                       # DTB read misses
system.switch_cpus.itb.read_acv                     0                       # DTB read access violations
system.switch_cpus.itb.read_accesses                0                       # DTB read accesses
system.switch_cpus.itb.write_hits                   0                       # DTB write hits
system.switch_cpus.itb.write_misses                 0                       # DTB write misses
system.switch_cpus.itb.write_acv                    0                       # DTB write access violations
system.switch_cpus.itb.write_accesses               0                       # DTB write accesses
system.switch_cpus.itb.data_hits                    0                       # DTB hits
system.switch_cpus.itb.data_misses                  0                       # DTB misses
system.switch_cpus.itb.data_acv                     0                       # DTB access violations
system.switch_cpus.itb.data_accesses                0                       # DTB accesses
system.cpu.workload.num_syscalls                    0                       # Number of system calls
system.switch_cpus.numCycles               4597142926                       # number of cpu cycles simulated
system.switch_cpus.numWorkItemsStarted              0                       # number of work items this cpu started
system.switch_cpus.numWorkItemsCompleted            0                       # number of work items this cpu completed
system.switch_cpus.fetch.icacheStallCycles    960587620                       # Number of cycles fetch is stalled on an Icache miss
system.switch_cpus.fetch.Insts             7939352595                       # Number of instructions fetch has processed
system.switch_cpus.fetch.Branches           205527560                       # Number of branches that fetch encountered
system.switch_cpus.fetch.predictedBranches    102297793                       # Number of branches that fetch has predicted taken
system.switch_cpus.fetch.Cycles            1122920306                       # Number of cycles fetch has run and was not squashing or blocked
system.switch_cpus.fetch.SquashCycles       597954013                       # Number of cycles fetch has spent squashing
system.switch_cpus.fetch.BlockedCycles     1891925065                       # Number of cycles fetch has spent blocked
system.switch_cpus.fetch.MiscStallCycles            2                       # Number of cycles fetch has spent waiting on interrupts, or bad addresses, or out of MSHRs
system.switch_cpus.fetch.PendingTrapStallCycles          459                       # Number of stall cycles due to pending traps
system.switch_cpus.fetch.CacheLines         860206543                       # Number of cache lines fetched
system.switch_cpus.fetch.IcacheSquashes      87159523                       # Number of outstanding Icache misses that were squashed
system.switch_cpus.fetch.rateDist::samples   4385684452                       # Number of instructions fetched each cycle (Total)
system.switch_cpus.fetch.rateDist::mean      1.810288                       # Number of instructions fetched each cycle (Total)
system.switch_cpus.fetch.rateDist::stdev     3.197828                       # Number of instructions fetched each cycle (Total)
system.switch_cpus.fetch.rateDist::underflows            0      0.00%      0.00% # Number of instructions fetched each cycle (Total)
system.switch_cpus.fetch.rateDist::0       3262764146     74.40%     74.40% # Number of instructions fetched each cycle (Total)
system.switch_cpus.fetch.rateDist::1            15808      0.00%     74.40% # Number of instructions fetched each cycle (Total)
system.switch_cpus.fetch.rateDist::2         50038967      1.14%     75.54% # Number of instructions fetched each cycle (Total)
system.switch_cpus.fetch.rateDist::3         25582222      0.58%     76.12% # Number of instructions fetched each cycle (Total)
system.switch_cpus.fetch.rateDist::4         10622842      0.24%     76.36% # Number of instructions fetched each cycle (Total)
system.switch_cpus.fetch.rateDist::5        124812145      2.85%     79.21% # Number of instructions fetched each cycle (Total)
system.switch_cpus.fetch.rateDist::6         62208085      1.42%     80.63% # Number of instructions fetched each cycle (Total)
system.switch_cpus.fetch.rateDist::7         74410312      1.70%     82.32% # Number of instructions fetched each cycle (Total)
system.switch_cpus.fetch.rateDist::8        775229925     17.68%    100.00% # Number of instructions fetched each cycle (Total)
system.switch_cpus.fetch.rateDist::overflows            0      0.00%    100.00% # Number of instructions fetched each cycle (Total)
system.switch_cpus.fetch.rateDist::min_value            0                       # Number of instructions fetched each cycle (Total)
system.switch_cpus.fetch.rateDist::max_value            8                       # Number of instructions fetched each cycle (Total)
system.switch_cpus.fetch.rateDist::total   4385684452                       # Number of instructions fetched each cycle (Total)
system.switch_cpus.fetch.branchRate          0.044708                       # Number of branch fetches per cycle
system.switch_cpus.fetch.rate                1.727019                       # Number of inst fetches per cycle
system.switch_cpus.decode.IdleCycles       1168633777                       # Number of cycles decode is idle
system.switch_cpus.decode.BlockedCycles    1819047771                       # Number of cycles decode is blocked
system.switch_cpus.decode.RunCycles         880288920                       # Number of cycles decode is running
system.switch_cpus.decode.UnblockCycles     107462988                       # Number of cycles decode is unblocking
system.switch_cpus.decode.SquashCycles      410250995                       # Number of cycles decode is squashing
system.switch_cpus.decode.BranchResolved     59647179                       # Number of times decode resolved a branch
system.switch_cpus.decode.BranchMispred             5                       # Number of times decode detected a branch misprediction
system.switch_cpus.decode.DecodedInsts     6945498056                       # Number of instructions handled by decode
system.switch_cpus.decode.SquashedInsts            22                       # Number of squashed instructions handled by decode
system.switch_cpus.rename.SquashCycles      410250995                       # Number of cycles rename is squashing
system.switch_cpus.rename.IdleCycles       1305875803                       # Number of cycles rename is idle
system.switch_cpus.rename.BlockCycles      1521612579                       # Number of cycles rename is blocking
system.switch_cpus.rename.serializeStallCycles            0                       # count of cycles rename stalled for serializing inst
system.switch_cpus.rename.RunCycles         843443075                       # Number of cycles rename is running
system.switch_cpus.rename.UnblockCycles     304501999                       # Number of cycles rename is unblocking
system.switch_cpus.rename.RenamedInsts     6020148188                       # Number of instructions processed by rename
system.switch_cpus.rename.ROBFullEvents      10591793                       # Number of times rename has blocked due to ROB full
system.switch_cpus.rename.IQFullEvents      194519822                       # Number of times rename has blocked due to IQ full
system.switch_cpus.rename.LSQFullEvents     137998703                       # Number of times rename has blocked due to LSQ full
system.switch_cpus.rename.RenamedOperands   5247977493                       # Number of destination operands rename has renamed
system.switch_cpus.rename.RenameLookups    8761855076                       # Number of register rename lookups that rename has made
system.switch_cpus.rename.int_rename_lookups    638766803                       # Number of integer rename lookups
system.switch_cpus.rename.fp_rename_lookups   8123088273                       # Number of floating rename lookups
system.switch_cpus.rename.CommittedMaps    1791849646                       # Number of HB maps that are committed
system.switch_cpus.rename.UndoneMaps       3456127758                       # Number of HB maps that are undone due to squashing
system.switch_cpus.rename.serializingInsts            0                       # count of serializing insts renamed
system.switch_cpus.rename.tempSerializingInsts            0                       # count of temporary serializing insts renamed
system.switch_cpus.rename.skidInsts         814066301                       # count of insts added to the skid buffer
system.switch_cpus.memDep0.insertedLoads   1831173792                       # Number of loads inserted to the mem dependence unit.
system.switch_cpus.memDep0.insertedStores    472910853                       # Number of stores inserted to the mem dependence unit.
system.switch_cpus.memDep0.conflictingLoads     57280580                       # Number of conflicting loads.
system.switch_cpus.memDep0.conflictingStores     11438155                       # Number of conflicting stores.
system.switch_cpus.iq.iqInstsAdded         4512125127                       # Number of instructions added to the IQ (excludes non-spec)
system.switch_cpus.iq.iqInstsIssued        3286588685                       # Number of instructions issued
system.switch_cpus.iq.iqSquashedInstsIssued    322537022                       # Number of squashed instructions issued
system.switch_cpus.iq.iqSquashedInstsExamined   2512103185                       # Number of squashed instructions iterated over during squash; mainly for profiling
system.switch_cpus.iq.iqSquashedOperandsExamined   3060353161                       # Number of squashed operands that are examined and possibly removed from graph
system.switch_cpus.iq.issued_per_cycle::samples   4385684452                       # Number of insts issued each cycle
system.switch_cpus.iq.issued_per_cycle::mean     0.749390                       # Number of insts issued each cycle
system.switch_cpus.iq.issued_per_cycle::stdev     1.457089                       # Number of insts issued each cycle
system.switch_cpus.iq.issued_per_cycle::underflows            0      0.00%      0.00% # Number of insts issued each cycle
system.switch_cpus.iq.issued_per_cycle::0   3247741579     74.05%     74.05% # Number of insts issued each cycle
system.switch_cpus.iq.issued_per_cycle::1    252232976      5.75%     79.80% # Number of insts issued each cycle
system.switch_cpus.iq.issued_per_cycle::2    212034123      4.83%     84.64% # Number of insts issued each cycle
system.switch_cpus.iq.issued_per_cycle::3    262028218      5.97%     90.61% # Number of insts issued each cycle
system.switch_cpus.iq.issued_per_cycle::4    287630369      6.56%     97.17% # Number of insts issued each cycle
system.switch_cpus.iq.issued_per_cycle::5     80954662      1.85%     99.02% # Number of insts issued each cycle
system.switch_cpus.iq.issued_per_cycle::6     33765645      0.77%     99.79% # Number of insts issued each cycle
system.switch_cpus.iq.issued_per_cycle::7      8060887      0.18%     99.97% # Number of insts issued each cycle
system.switch_cpus.iq.issued_per_cycle::8      1235993      0.03%    100.00% # Number of insts issued each cycle
system.switch_cpus.iq.issued_per_cycle::overflows            0      0.00%    100.00% # Number of insts issued each cycle
system.switch_cpus.iq.issued_per_cycle::min_value            0                       # Number of insts issued each cycle
system.switch_cpus.iq.issued_per_cycle::max_value            8                       # Number of insts issued each cycle
system.switch_cpus.iq.issued_per_cycle::total   4385684452                       # Number of insts issued each cycle
system.switch_cpus.iq.fu_full::No_OpClass            0      0.00%      0.00% # attempts to use FU when none available
system.switch_cpus.iq.fu_full::IntAlu         2938686      0.96%      0.96% # attempts to use FU when none available
system.switch_cpus.iq.fu_full::IntMult              0      0.00%      0.96% # attempts to use FU when none available
system.switch_cpus.iq.fu_full::IntDiv               0      0.00%      0.96% # attempts to use FU when none available
system.switch_cpus.iq.fu_full::FloatAdd       5885620      1.92%      2.88% # attempts to use FU when none available
system.switch_cpus.iq.fu_full::FloatCmp             0      0.00%      2.88% # attempts to use FU when none available
system.switch_cpus.iq.fu_full::FloatCvt             0      0.00%      2.88% # attempts to use FU when none available
system.switch_cpus.iq.fu_full::FloatMult     24350905      7.94%     10.81% # attempts to use FU when none available
system.switch_cpus.iq.fu_full::FloatDiv      68622844     22.37%     33.18% # attempts to use FU when none available
system.switch_cpus.iq.fu_full::FloatSqrt            0      0.00%     33.18% # attempts to use FU when none available
system.switch_cpus.iq.fu_full::SimdAdd              0      0.00%     33.18% # attempts to use FU when none available
system.switch_cpus.iq.fu_full::SimdAddAcc            0      0.00%     33.18% # attempts to use FU when none available
system.switch_cpus.iq.fu_full::SimdAlu              0      0.00%     33.18% # attempts to use FU when none available
system.switch_cpus.iq.fu_full::SimdCmp              0      0.00%     33.18% # attempts to use FU when none available
system.switch_cpus.iq.fu_full::SimdCvt              0      0.00%     33.18% # attempts to use FU when none available
system.switch_cpus.iq.fu_full::SimdMisc             0      0.00%     33.18% # attempts to use FU when none available
system.switch_cpus.iq.fu_full::SimdMult             0      0.00%     33.18% # attempts to use FU when none available
system.switch_cpus.iq.fu_full::SimdMultAcc            0      0.00%     33.18% # attempts to use FU when none available
system.switch_cpus.iq.fu_full::SimdShift            0      0.00%     33.18% # attempts to use FU when none available
system.switch_cpus.iq.fu_full::SimdShiftAcc            0      0.00%     33.18% # attempts to use FU when none available
system.switch_cpus.iq.fu_full::SimdSqrt             0      0.00%     33.18% # attempts to use FU when none available
system.switch_cpus.iq.fu_full::SimdFloatAdd            0      0.00%     33.18% # attempts to use FU when none available
system.switch_cpus.iq.fu_full::SimdFloatAlu            0      0.00%     33.18% # attempts to use FU when none available
system.switch_cpus.iq.fu_full::SimdFloatCmp            0      0.00%     33.18% # attempts to use FU when none available
system.switch_cpus.iq.fu_full::SimdFloatCvt            0      0.00%     33.18% # attempts to use FU when none available
system.switch_cpus.iq.fu_full::SimdFloatDiv            0      0.00%     33.18% # attempts to use FU when none available
system.switch_cpus.iq.fu_full::SimdFloatMisc            0      0.00%     33.18% # attempts to use FU when none available
system.switch_cpus.iq.fu_full::SimdFloatMult            0      0.00%     33.18% # attempts to use FU when none available
system.switch_cpus.iq.fu_full::SimdFloatMultAcc            0      0.00%     33.18% # attempts to use FU when none available
system.switch_cpus.iq.fu_full::SimdFloatSqrt            0      0.00%     33.18% # attempts to use FU when none available
system.switch_cpus.iq.fu_full::MemRead      185421623     60.44%     93.62% # attempts to use FU when none available
system.switch_cpus.iq.fu_full::MemWrite      19581770      6.38%    100.00% # attempts to use FU when none available
system.switch_cpus.iq.fu_full::IprAccess            0      0.00%    100.00% # attempts to use FU when none available
system.switch_cpus.iq.fu_full::InstPrefetch            0      0.00%    100.00% # attempts to use FU when none available
system.switch_cpus.iq.FU_type_0::No_OpClass            0      0.00%      0.00% # Type of FU issued
system.switch_cpus.iq.FU_type_0::IntAlu     274049849      8.34%      8.34% # Type of FU issued
system.switch_cpus.iq.FU_type_0::IntMult            0      0.00%      8.34% # Type of FU issued
system.switch_cpus.iq.FU_type_0::IntDiv             0      0.00%      8.34% # Type of FU issued
system.switch_cpus.iq.FU_type_0::FloatAdd    813176938     24.74%     33.08% # Type of FU issued
system.switch_cpus.iq.FU_type_0::FloatCmp            0      0.00%     33.08% # Type of FU issued
system.switch_cpus.iq.FU_type_0::FloatCvt            0      0.00%     33.08% # Type of FU issued
system.switch_cpus.iq.FU_type_0::FloatMult    452145638     13.76%     46.84% # Type of FU issued
system.switch_cpus.iq.FU_type_0::FloatDiv     17155877      0.52%     47.36% # Type of FU issued
system.switch_cpus.iq.FU_type_0::FloatSqrt            0      0.00%     47.36% # Type of FU issued
system.switch_cpus.iq.FU_type_0::SimdAdd            0      0.00%     47.36% # Type of FU issued
system.switch_cpus.iq.FU_type_0::SimdAddAcc            0      0.00%     47.36% # Type of FU issued
system.switch_cpus.iq.FU_type_0::SimdAlu            0      0.00%     47.36% # Type of FU issued
system.switch_cpus.iq.FU_type_0::SimdCmp            0      0.00%     47.36% # Type of FU issued
system.switch_cpus.iq.FU_type_0::SimdCvt            0      0.00%     47.36% # Type of FU issued
system.switch_cpus.iq.FU_type_0::SimdMisc            0      0.00%     47.36% # Type of FU issued
system.switch_cpus.iq.FU_type_0::SimdMult            0      0.00%     47.36% # Type of FU issued
system.switch_cpus.iq.FU_type_0::SimdMultAcc            0      0.00%     47.36% # Type of FU issued
system.switch_cpus.iq.FU_type_0::SimdShift            0      0.00%     47.36% # Type of FU issued
system.switch_cpus.iq.FU_type_0::SimdShiftAcc            0      0.00%     47.36% # Type of FU issued
system.switch_cpus.iq.FU_type_0::SimdSqrt            0      0.00%     47.36% # Type of FU issued
system.switch_cpus.iq.FU_type_0::SimdFloatAdd            0      0.00%     47.36% # Type of FU issued
system.switch_cpus.iq.FU_type_0::SimdFloatAlu            0      0.00%     47.36% # Type of FU issued
system.switch_cpus.iq.FU_type_0::SimdFloatCmp            0      0.00%     47.36% # Type of FU issued
system.switch_cpus.iq.FU_type_0::SimdFloatCvt            0      0.00%     47.36% # Type of FU issued
system.switch_cpus.iq.FU_type_0::SimdFloatDiv            0      0.00%     47.36% # Type of FU issued
system.switch_cpus.iq.FU_type_0::SimdFloatMisc            0      0.00%     47.36% # Type of FU issued
system.switch_cpus.iq.FU_type_0::SimdFloatMult            0      0.00%     47.36% # Type of FU issued
system.switch_cpus.iq.FU_type_0::SimdFloatMultAcc            0      0.00%     47.36% # Type of FU issued
system.switch_cpus.iq.FU_type_0::SimdFloatSqrt            0      0.00%     47.36% # Type of FU issued
system.switch_cpus.iq.FU_type_0::MemRead   1520203566     46.25%     93.61% # Type of FU issued
system.switch_cpus.iq.FU_type_0::MemWrite    209856817      6.39%    100.00% # Type of FU issued
system.switch_cpus.iq.FU_type_0::IprAccess            0      0.00%    100.00% # Type of FU issued
system.switch_cpus.iq.FU_type_0::InstPrefetch            0      0.00%    100.00% # Type of FU issued
system.switch_cpus.iq.FU_type_0::total     3286588685                       # Type of FU issued
system.switch_cpus.iq.rate                   0.714920                       # Inst issue rate
system.switch_cpus.iq.fu_busy_cnt           306801448                       # FU busy when requested
system.switch_cpus.iq.fu_busy_rate           0.093350                       # FU busy rate (busy events/executed inst)
system.switch_cpus.iq.int_inst_queue_reads   5152507718                       # Number of integer instruction queue reads
system.switch_cpus.iq.int_inst_queue_writes    981865694                       # Number of integer instruction queue writes
system.switch_cpus.iq.int_inst_queue_wakeup_accesses    260639420                       # Number of integer instruction queue wakeup accesses
system.switch_cpus.iq.fp_inst_queue_reads   6435692566                       # Number of floating instruction queue reads
system.switch_cpus.iq.fp_inst_queue_writes   6042386652                       # Number of floating instruction queue writes
system.switch_cpus.iq.fp_inst_queue_wakeup_accesses   1851186700                       # Number of floating instruction queue wakeup accesses
system.switch_cpus.iq.int_alu_accesses      366154756                       # Number of integer alu accesses
system.switch_cpus.iq.fp_alu_accesses      3227235377                       # Number of floating point alu accesses
system.switch_cpus.iew.lsq.thread0.forwLoads     51646284                       # Number of loads that had data forwarded from stores
system.switch_cpus.iew.lsq.thread0.invAddrLoads            0                       # Number of loads ignored due to an invalid address
system.switch_cpus.iew.lsq.thread0.squashedLoads   1460862064                       # Number of loads squashed
system.switch_cpus.iew.lsq.thread0.ignoredResponses           36                       # Number of memory responses ignored because the instruction is squashed
system.switch_cpus.iew.lsq.thread0.memOrderViolation        24034                       # Number of memory ordering violations
system.switch_cpus.iew.lsq.thread0.squashedStores    294774895                       # Number of stores squashed
system.switch_cpus.iew.lsq.thread0.invAddrSwpfs            0                       # Number of software prefetches ignored due to an invalid address
system.switch_cpus.iew.lsq.thread0.blockedLoads            0                       # Number of blocked loads due to partial load-store forwarding
system.switch_cpus.iew.lsq.thread0.rescheduledLoads            0                       # Number of loads that were rescheduled
system.switch_cpus.iew.lsq.thread0.cacheBlocked    696002412                       # Number of times an access to memory failed due to the cache being blocked
system.switch_cpus.iew.iewIdleCycles                0                       # Number of cycles IEW is idle
system.switch_cpus.iew.iewSquashCycles      410250995                       # Number of cycles IEW is squashing
system.switch_cpus.iew.iewBlockCycles      1111301764                       # Number of cycles IEW is blocking
system.switch_cpus.iew.iewUnblockCycles      36505595                       # Number of cycles IEW is unblocking
system.switch_cpus.iew.iewDispatchedInsts   4512125206                       # Number of instructions dispatched to IQ
system.switch_cpus.iew.iewDispSquashedInsts      1941805                       # Number of squashed instructions skipped by dispatch
system.switch_cpus.iew.iewDispLoadInsts    1831173792                       # Number of dispatched load instructions
system.switch_cpus.iew.iewDispStoreInsts    472910853                       # Number of dispatched store instructions
system.switch_cpus.iew.iewDispNonSpecInsts            0                       # Number of dispatched non-speculative instructions
system.switch_cpus.iew.iewIQFullEvents       29979079                       # Number of times the IQ has become full, causing a stall
system.switch_cpus.iew.iewLSQFullEvents        271952                       # Number of times the LSQ has become full, causing a stall
system.switch_cpus.iew.memOrderViolationEvents        24034                       # Number of memory order violations
system.switch_cpus.iew.predictedTakenIncorrect         9275                       # Number of branches that were predicted taken incorrectly
system.switch_cpus.iew.predictedNotTakenIncorrect        76359                       # Number of branches that were predicted not taken incorrectly
system.switch_cpus.iew.branchMispredicts        85634                       # Number of branch mispredicts detected at execute
system.switch_cpus.iew.iewExecutedInsts    2762997622                       # Number of executed instructions
system.switch_cpus.iew.iewExecLoadInsts    1025482003                       # Number of load instructions executed
system.switch_cpus.iew.iewExecSquashedInsts    523591055                       # Number of squashed instructions skipped in execute
system.switch_cpus.iew.exec_swp                     0                       # number of swp insts executed
system.switch_cpus.iew.exec_nop                    79                       # number of nop insts executed
system.switch_cpus.iew.exec_refs           1233824426                       # number of memory reference insts executed
system.switch_cpus.iew.exec_branches         33939547                       # Number of branches executed
system.switch_cpus.iew.exec_stores          208342423                       # Number of stores executed
system.switch_cpus.iew.exec_rate             0.601025                       # Inst execution rate
system.switch_cpus.iew.wb_sent             2113158554                       # cumulative count of insts sent to commit
system.switch_cpus.iew.wb_count            2111826120                       # cumulative count of insts written-back
system.switch_cpus.iew.wb_producers        1638272035                       # num instructions producing a value
system.switch_cpus.iew.wb_consumers        2263578025                       # num instructions consuming a value
system.switch_cpus.iew.wb_penalized                 0                       # number of instrctions required to write to 'other' IQ
system.switch_cpus.iew.wb_rate               0.459378                       # insts written-back per cycle
system.switch_cpus.iew.wb_fanout             0.723753                       # average fanout of values written-back
system.switch_cpus.iew.wb_penalized_rate            0                       # fraction of instructions written-back that wrote to 'other' IQ
system.switch_cpus.commit.commitSquashedInsts   2512551673                       # The number of squashed insts skipped by commit
system.switch_cpus.commit.branchMispredicts        84807                       # The number of times a branch was mispredicted
system.switch_cpus.commit.committed_per_cycle::samples   3975433457                       # Number of insts commited each cycle
system.switch_cpus.commit.committed_per_cycle::mean     0.503090                       # Number of insts commited each cycle
system.switch_cpus.commit.committed_per_cycle::stdev     1.586145                       # Number of insts commited each cycle
system.switch_cpus.commit.committed_per_cycle::underflows            0      0.00%      0.00% # Number of insts commited each cycle
system.switch_cpus.commit.committed_per_cycle::0   3430867729     86.30%     86.30% # Number of insts commited each cycle
system.switch_cpus.commit.committed_per_cycle::1    176628743      4.44%     90.74% # Number of insts commited each cycle
system.switch_cpus.commit.committed_per_cycle::2     53460754      1.34%     92.09% # Number of insts commited each cycle
system.switch_cpus.commit.committed_per_cycle::3     64325464      1.62%     93.71% # Number of insts commited each cycle
system.switch_cpus.commit.committed_per_cycle::4     76437948      1.92%     95.63% # Number of insts commited each cycle
system.switch_cpus.commit.committed_per_cycle::5     41393085      1.04%     96.67% # Number of insts commited each cycle
system.switch_cpus.commit.committed_per_cycle::6     14562409      0.37%     97.04% # Number of insts commited each cycle
system.switch_cpus.commit.committed_per_cycle::7     18676878      0.47%     97.51% # Number of insts commited each cycle
system.switch_cpus.commit.committed_per_cycle::8     99080447      2.49%    100.00% # Number of insts commited each cycle
system.switch_cpus.commit.committed_per_cycle::overflows            0      0.00%    100.00% # Number of insts commited each cycle
system.switch_cpus.commit.committed_per_cycle::min_value            0                       # Number of insts commited each cycle
system.switch_cpus.commit.committed_per_cycle::max_value            8                       # Number of insts commited each cycle
system.switch_cpus.commit.committed_per_cycle::total   3975433457                       # Number of insts commited each cycle
system.switch_cpus.commit.committedInsts   2000000036                       # Number of instructions committed
system.switch_cpus.commit.committedOps     2000000036                       # Number of ops (including micro ops) committed
system.switch_cpus.commit.swp_count                 0                       # Number of s/w prefetches committed
system.switch_cpus.commit.refs              548447673                       # Number of memory references committed
system.switch_cpus.commit.loads             370311718                       # Number of loads committed
system.switch_cpus.commit.membars                   0                       # Number of memory barriers committed
system.switch_cpus.commit.branches           30014407                       # Number of branches committed
system.switch_cpus.commit.fp_insts         1785581787                       # Number of committed floating point instructions.
system.switch_cpus.commit.int_insts         745004108                       # Number of committed integer instructions.
system.switch_cpus.commit.function_calls           10                       # Number of function calls committed.
system.switch_cpus.commit.bw_lim_events      99080447                       # number cycles where commit BW limit reached
system.switch_cpus.commit.bw_limited                0                       # number of insts not committed due to BW limits
system.switch_cpus.rob.rob_reads           8382252073                       # The number of ROB reads
system.switch_cpus.rob.rob_writes          9435356058                       # The number of ROB writes
system.switch_cpus.timesIdled                 2000931                       # Number of times that the entire CPU went into an idle state and unscheduled itself
system.switch_cpus.idleCycles               211458474                       # Total number of cycles that the CPU has spent unscheduled due to idling
system.switch_cpus.committedInsts          2000000006                       # Number of Instructions Simulated
system.switch_cpus.committedOps            2000000006                       # Number of Ops (including micro ops) Simulated
system.switch_cpus.committedInsts_total    2000000006                       # Number of Instructions Simulated
system.switch_cpus.cpi                       2.298571                       # CPI: Cycles Per Instruction
system.switch_cpus.cpi_total                 2.298571                       # CPI: Total CPI of All Threads
system.switch_cpus.ipc                       0.435053                       # IPC: Instructions Per Cycle
system.switch_cpus.ipc_total                 0.435053                       # IPC: Total IPC of All Threads
system.switch_cpus.int_regfile_reads       1480139950                       # number of integer regfile reads
system.switch_cpus.int_regfile_writes       226700019                       # number of integer regfile writes
system.switch_cpus.fp_regfile_reads        2758313181                       # number of floating regfile reads
system.switch_cpus.fp_regfile_writes       1643288357                       # number of floating regfile writes
system.l2.tags.numFaultyBlocks_VDD1                 2                       # number of faulty blocks in the cache at VDD1 (lowest)
system.l2.tags.numFaultyBlocks_VDD2                 2                       # number of faulty blocks in the cache at VDD2 (mid)
system.l2.tags.numFaultyBlocks_VDD3                 0                       # number of faulty blocks in the cache at VDD3 (highest)
system.l2.tags.blockFaultRate_VDD1           0.000061                       # Proportion of faulty blocks in the cache at VDD1
system.l2.tags.blockFaultRate_VDD2           0.000061                       # Proportion of faulty blocks in the cache at VDD2
system.l2.tags.blockFaultRate_VDD3                  0                       # Proportion of faulty blocks in the cache at VDD3
system.l2.tags.cycles_VDD1                          0                       # Total number of cycles spent on VDD1
system.l2.tags.cycles_VDD2                 5597375535                       # Total number of cycles spent on VDD2
system.l2.tags.cycles_VDD3                          0                       # Total number of cycles spent on VDD3
system.l2.tags.accessEnergy_VDD1                    0                       # Total dynamic energy dissipated at VDD1 in nJ
system.l2.tags.accessEnergy_VDD2         27479716.948969                       # Total dynamic energy dissipated at VDD2 in nJ
system.l2.tags.accessEnergy_VDD3                    0                       # Total dynamic energy dissipated at VDD3 in nJ
system.l2.tags.accessEnergy_tot          27479716.948969                       # Total dynamic energy dissipated in nJ
system.l2.tags.transitionsTo_VDD1                   0                       # Total number of transitions to VDD1
system.l2.tags.transitionsTo_VDD2                   0                       # Total number of transitions to VDD2
system.l2.tags.transitionsTo_VDD3                   0                       # Total number of transitions to VDD3
system.l2.tags.avgConsecutiveCycles_VDD1          nan                       # Average number of consecutive cycles spent at VDD1
system.l2.tags.avgConsecutiveCycles_VDD2          inf                       # Average number of consecutive cycles spent at VDD2
system.l2.tags.avgConsecutiveCycles_VDD3          nan                       # Average number of consecutive cycles spent at VDD3
system.l2.tags.proportionExecTime_VDD1              0                       # Proportion of total execution time that was spent at VDD1 for this cache
system.l2.tags.proportionExecTime_VDD2              1                       # Proportion of total execution time that was spent at VDD2 for this cache
system.l2.tags.proportionExecTime_VDD3              0                       # Proportion of total execution time that was spent at VDD3 for this cache
system.l2.tags.staticPower_avg             389.277000                       # Average static power of this cache over the entire execution
system.l2.tags.numUnchangedFaultyTo_VDD1            0                       # Total number of unchanged (faulty) blocks during DPCS transition to VDD1
system.l2.tags.numUnchangedFaultyTo_VDD2            0                       # Total number of unchanged (faulty) blocks during DPCS transition to VDD2
system.l2.tags.numUnchangedFaultyTo_VDD3            0                       # Total number of unchanged (faulty) blocks during DPCS transition to VDD3
system.l2.tags.numFaultyWriteBacksTo_VDD1            0                       # Total number of faulty writebacks during DPCS transition to VDD1
system.l2.tags.numFaultyWriteBacksTo_VDD2            0                       # Total number of faulty writebacks during DPCS transition to VDD2
system.l2.tags.numFaultyWriteBacksTo_VDD3            0                       # Total number of faulty writebacks during DPCS transition to VDD3
system.l2.tags.numInvalidateOnlyTo_VDD1             0                       # Total number of blocks only invalidated during DPCS transition to VDD1
system.l2.tags.numInvalidateOnlyTo_VDD2             0                       # Total number of blocks only invalidated during DPCS transition to VDD2
system.l2.tags.numInvalidateOnlyTo_VDD3             0                       # Total number of blocks only invalidated during DPCS transition to VDD3
system.l2.tags.numMadeAvailableTo_VDD1              0                       # Total number of blocks made available (faulty to non-faulty) during DPCS transition to VDD1
system.l2.tags.numMadeAvailableTo_VDD2              0                       # Total number of blocks made available (faulty to non-faulty) during DPCS transition to VDD2
system.l2.tags.numMadeAvailableTo_VDD3              0                       # Total number of blocks made available (faulty to non-faulty) during DPCS transition to VDD3
system.l2.tags.numUnchangedNotFaultyTo_VDD1            0                       # Total number of blocks unchanged (not faulty) during DPCS transition to VDD1
system.l2.tags.numUnchangedNotFaultyTo_VDD2            0                       # Total number of blocks unchanged (not faulty) during DPCS transition to VDD2
system.l2.tags.numUnchangedNotFaultyTo_VDD3            0                       # Total number of blocks unchanged (not faulty) during DPCS transition to VDD3
system.l2.tags.faultyWriteBackRateTo_VDD1          nan                       # Average number of writebacks caused by faulty blocks when changing to VDD1
system.l2.tags.faultyWriteBackRateTo_VDD2          nan                       # Average number of writebacks caused by faulty blocks when changing to VDD2
system.l2.tags.faultyWriteBackRateTo_VDD3          nan                       # Average number of writebacks caused by faulty blocks when changing to VDD3
system.l2.tags.replacements                  63519219                       # number of replacements
system.l2.tags.tagsinuse                 31959.749175                       # Cycle average of tags in use
system.l2.tags.total_refs                    34951937                       # Total number of references to valid blocks.
system.l2.tags.sampled_refs                  63551140                       # Sample count of references to valid blocks.
system.l2.tags.avg_refs                      0.549981                       # Average number of references to valid blocks.
system.l2.tags.warmup_cycle                         0                       # Cycle when the warmup percentage was hit.
system.l2.tags.occ_blocks::writebacks    23903.939247                       # Average occupied blocks per requestor
system.l2.tags.occ_blocks::switch_cpus.inst     0.000409                       # Average occupied blocks per requestor
system.l2.tags.occ_blocks::switch_cpus.data  8053.825855                       # Average occupied blocks per requestor
system.l2.tags.occ_blocks::cpu.data          1.983660                       # Average occupied blocks per requestor
system.l2.tags.occ_percent::writebacks       0.729490                       # Average percentage of cache occupancy
system.l2.tags.occ_percent::switch_cpus.inst     0.000000                       # Average percentage of cache occupancy
system.l2.tags.occ_percent::switch_cpus.data     0.245783                       # Average percentage of cache occupancy
system.l2.tags.occ_percent::cpu.data         0.000061                       # Average percentage of cache occupancy
system.l2.tags.occ_percent::total            0.975334                       # Average percentage of cache occupancy
system.l2.ReadReq_hits::switch_cpus.data         2135                       # number of ReadReq hits
system.l2.ReadReq_hits::total                    2135                       # number of ReadReq hits
system.l2.Writeback_hits::writebacks         82571939                       # number of Writeback hits
system.l2.Writeback_hits::total              82571939                       # number of Writeback hits
system.l2.ReadExReq_hits::switch_cpus.data     34932649                       # number of ReadExReq hits
system.l2.ReadExReq_hits::total              34932649                       # number of ReadExReq hits
system.l2.demand_hits::switch_cpus.data      34934784                       # number of demand (read+write) hits
system.l2.demand_hits::total                 34934784                       # number of demand (read+write) hits
system.l2.overall_hits::switch_cpus.data     34934784                       # number of overall hits
system.l2.overall_hits::total                34934784                       # number of overall hits
system.l2.ReadReq_misses::switch_cpus.inst            1                       # number of ReadReq misses
system.l2.ReadReq_misses::switch_cpus.data     15879908                       # number of ReadReq misses
system.l2.ReadReq_misses::total              15879909                       # number of ReadReq misses
system.l2.ReadExReq_misses::switch_cpus.data     47639172                       # number of ReadExReq misses
system.l2.ReadExReq_misses::total            47639172                       # number of ReadExReq misses
system.l2.demand_misses::switch_cpus.inst            1                       # number of demand (read+write) misses
system.l2.demand_misses::switch_cpus.data     63519080                       # number of demand (read+write) misses
system.l2.demand_misses::total               63519081                       # number of demand (read+write) misses
system.l2.overall_misses::switch_cpus.inst            1                       # number of overall misses
system.l2.overall_misses::switch_cpus.data     63519080                       # number of overall misses
system.l2.overall_misses::total              63519081                       # number of overall misses
system.l2.ReadReq_miss_latency::switch_cpus.inst        82750                       # number of ReadReq miss cycles
system.l2.ReadReq_miss_latency::switch_cpus.data 1585023447250                       # number of ReadReq miss cycles
system.l2.ReadReq_miss_latency::total    1585023530000                       # number of ReadReq miss cycles
system.l2.ReadExReq_miss_latency::switch_cpus.data 4251443372250                       # number of ReadExReq miss cycles
system.l2.ReadExReq_miss_latency::total  4251443372250                       # number of ReadExReq miss cycles
system.l2.demand_miss_latency::switch_cpus.inst        82750                       # number of demand (read+write) miss cycles
system.l2.demand_miss_latency::switch_cpus.data 5836466819500                       # number of demand (read+write) miss cycles
system.l2.demand_miss_latency::total     5836466902250                       # number of demand (read+write) miss cycles
system.l2.overall_miss_latency::switch_cpus.inst        82750                       # number of overall miss cycles
system.l2.overall_miss_latency::switch_cpus.data 5836466819500                       # number of overall miss cycles
system.l2.overall_miss_latency::total    5836466902250                       # number of overall miss cycles
system.l2.ReadReq_accesses::switch_cpus.inst            1                       # number of ReadReq accesses(hits+misses)
system.l2.ReadReq_accesses::switch_cpus.data     15882043                       # number of ReadReq accesses(hits+misses)
system.l2.ReadReq_accesses::total            15882044                       # number of ReadReq accesses(hits+misses)
system.l2.Writeback_accesses::writebacks     82571939                       # number of Writeback accesses(hits+misses)
system.l2.Writeback_accesses::total          82571939                       # number of Writeback accesses(hits+misses)
system.l2.ReadExReq_accesses::switch_cpus.data     82571821                       # number of ReadExReq accesses(hits+misses)
system.l2.ReadExReq_accesses::total          82571821                       # number of ReadExReq accesses(hits+misses)
system.l2.demand_accesses::switch_cpus.inst            1                       # number of demand (read+write) accesses
system.l2.demand_accesses::switch_cpus.data     98453864                       # number of demand (read+write) accesses
system.l2.demand_accesses::total             98453865                       # number of demand (read+write) accesses
system.l2.overall_accesses::switch_cpus.inst            1                       # number of overall (read+write) accesses
system.l2.overall_accesses::switch_cpus.data     98453864                       # number of overall (read+write) accesses
system.l2.overall_accesses::total            98453865                       # number of overall (read+write) accesses
system.l2.ReadReq_miss_rate::switch_cpus.inst            1                       # miss rate for ReadReq accesses
system.l2.ReadReq_miss_rate::switch_cpus.data     0.999866                       # miss rate for ReadReq accesses
system.l2.ReadReq_miss_rate::total           0.999866                       # miss rate for ReadReq accesses
system.l2.ReadExReq_miss_rate::switch_cpus.data     0.576942                       # miss rate for ReadExReq accesses
system.l2.ReadExReq_miss_rate::total         0.576942                       # miss rate for ReadExReq accesses
system.l2.demand_miss_rate::switch_cpus.inst            1                       # miss rate for demand accesses
system.l2.demand_miss_rate::switch_cpus.data     0.645166                       # miss rate for demand accesses
[...]
system.cpu.icache.ReadReq_avg_mshr_miss_latency::switch_cpus.inst        83750                       # average ReadReq mshr miss latency
system.cpu.icache.ReadReq_avg_mshr_miss_latency::total        83750                       # average ReadReq mshr miss latency
system.cpu.icache.demand_avg_mshr_miss_latency::switch_cpus.inst        83750                       # average overall mshr miss latency
system.cpu.icache.demand_avg_mshr_miss_latency::total        83750                       # average overall mshr miss latency
system.cpu.icache.overall_avg_mshr_miss_latency::switch_cpus.inst        83750                       # average overall mshr miss latency
system.cpu.icache.overall_avg_mshr_miss_latency::total        83750                       # average overall mshr miss latency
system.cpu.icache.no_allocate_misses                0                       # Number of misses that were no-allocate
system.cpu.dcache.tags.numFaultyBlocks_VDD1           45                       # number of faulty blocks in the cache at VDD1 (lowest)
system.cpu.dcache.tags.numFaultyBlocks_VDD2            0                       # number of faulty blocks in the cache at VDD2 (mid)
system.cpu.dcache.tags.numFaultyBlocks_VDD3            0                       # number of faulty blocks in the cache at VDD3 (highest)
system.cpu.dcache.tags.blockFaultRate_VDD1     0.043945                       # Proportion of faulty blocks in the cache at VDD1
system.cpu.dcache.tags.blockFaultRate_VDD2            0                       # Proportion of faulty blocks in the cache at VDD2
system.cpu.dcache.tags.blockFaultRate_VDD3            0                       # Proportion of faulty blocks in the cache at VDD3
system.cpu.dcache.tags.cycles_VDD1                  0                       # Total number of cycles spent on VDD1
system.cpu.dcache.tags.cycles_VDD2         5597375609                       # Total number of cycles spent on VDD2
system.cpu.dcache.tags.cycles_VDD3                  0                       # Total number of cycles spent on VDD3
system.cpu.dcache.tags.accessEnergy_VDD1            0                       # Total dynamic energy dissipated at VDD1 in nJ
system.cpu.dcache.tags.accessEnergy_VDD2 10588028.526391                       # Total dynamic energy dissipated at VDD2 in nJ
system.cpu.dcache.tags.accessEnergy_VDD3            0                       # Total dynamic energy dissipated at VDD3 in nJ
system.cpu.dcache.tags.accessEnergy_tot  10588028.526391                       # Total dynamic energy dissipated in nJ
system.cpu.dcache.tags.transitionsTo_VDD1            0                       # Total number of transitions to VDD1
system.cpu.dcache.tags.transitionsTo_VDD2            0                       # Total number of transitions to VDD2
system.cpu.dcache.tags.transitionsTo_VDD3            0                       # Total number of transitions to VDD3
system.cpu.dcache.tags.avgConsecutiveCycles_VDD1          nan                       # Average number of consecutive cycles spent at VDD1
system.cpu.dcache.tags.avgConsecutiveCycles_VDD2          inf                       # Average number of consecutive cycles spent at VDD2
system.cpu.dcache.tags.avgConsecutiveCycles_VDD3          nan                       # Average number of consecutive cycles spent at VDD3
system.cpu.dcache.tags.proportionExecTime_VDD1            0                       # Proportion of total execution time that was spent at VDD1 for this cache
system.cpu.dcache.tags.proportionExecTime_VDD2            1                       # Proportion of total execution time that was spent at VDD2 for this cache
system.cpu.dcache.tags.proportionExecTime_VDD3            0                       # Proportion of total execution time that was spent at VDD3 for this cache
system.cpu.dcache.tags.staticPower_avg      12.584000                       # Average static power of this cache over the entire execution
system.cpu.dcache.tags.numUnchangedFaultyTo_VDD1            0                       # Total number of unchanged (faulty) blocks during DPCS transition to VDD1
system.cpu.dcache.tags.numUnchangedFaultyTo_VDD2            0                       # Total number of unchanged (faulty) blocks during DPCS transition to VDD2
system.cpu.dcache.tags.numUnchangedFaultyTo_VDD3            0                       # Total number of unchanged (faulty) blocks during DPCS transition to VDD3
system.cpu.dcache.tags.numFaultyWriteBacksTo_VDD1            0                       # Total number of faulty writebacks during DPCS transition to VDD1
system.cpu.dcache.tags.numFaultyWriteBacksTo_VDD2            0                       # Total number of faulty writebacks during DPCS transition to VDD2
system.cpu.dcache.tags.numFaultyWriteBacksTo_VDD3            0                       # Total number of faulty writebacks during DPCS transition to VDD3
system.cpu.dcache.tags.numInvalidateOnlyTo_VDD1            0                       # Total number of blocks only invalidated during DPCS transition to VDD1
system.cpu.dcache.tags.numInvalidateOnlyTo_VDD2            0                       # Total number of blocks only invalidated during DPCS transition to VDD2
system.cpu.dcache.tags.numInvalidateOnlyTo_VDD3            0                       # Total number of blocks only invalidated during DPCS transition to VDD3
system.cpu.dcache.tags.numMadeAvailableTo_VDD1            0                       # Total number of blocks made available (faulty to non-faulty) during DPCS transition to VDD1
system.cpu.dcache.tags.numMadeAvailableTo_VDD2            0                       # Total number of blocks made available (faulty to non-faulty) during DPCS transition to VDD2
system.cpu.dcache.tags.numMadeAvailableTo_VDD3            0                       # Total number of blocks made available (faulty to non-faulty) during DPCS transition to VDD3
system.cpu.dcache.tags.numUnchangedNotFaultyTo_VDD1            0                       # Total number of blocks unchanged (not faulty) during DPCS transition to VDD1
system.cpu.dcache.tags.numUnchangedNotFaultyTo_VDD2            0                       # Total number of blocks unchanged (not faulty) during DPCS transition to VDD2
system.cpu.dcache.tags.numUnchangedNotFaultyTo_VDD3            0                       # Total number of blocks unchanged (not faulty) during DPCS transition to VDD3
system.cpu.dcache.tags.faultyWriteBackRateTo_VDD1          nan                       # Average number of writebacks caused by faulty blocks when changing to VDD1
system.cpu.dcache.tags.faultyWriteBackRateTo_VDD2          nan                       # Average number of writebacks caused by faulty blocks when changing to VDD2
system.cpu.dcache.tags.faultyWriteBackRateTo_VDD3          nan                       # Average number of writebacks caused by faulty blocks when changing to VDD3
system.cpu.dcache.tags.replacements          98453864                       # number of replacements
system.cpu.dcache.tags.tagsinuse                 1024                       # Cycle average of tags in use
system.cpu.dcache.tags.total_refs           346774810                       # Total number of references to valid blocks.
system.cpu.dcache.tags.sampled_refs          98454888                       # Sample count of references to valid blocks.
system.cpu.dcache.tags.avg_refs              3.522170                       # Average number of references to valid blocks.
system.cpu.dcache.tags.warmup_cycle                 0                       # Cycle when the warmup percentage was hit.
system.cpu.dcache.tags.occ_blocks::switch_cpus.data  1023.992635                       # Average occupied blocks per requestor
system.cpu.dcache.tags.occ_blocks::cpu.data     0.007365                       # Average occupied blocks per requestor
system.cpu.dcache.tags.occ_percent::switch_cpus.data     0.999993                       # Average percentage of cache occupancy
system.cpu.dcache.tags.occ_percent::cpu.data     0.000007                       # Average percentage of cache occupancy
system.cpu.dcache.tags.occ_percent::total            1                       # Average percentage of cache occupancy
system.cpu.dcache.ReadReq_hits::switch_cpus.data    251014618                       # number of ReadReq hits
system.cpu.dcache.ReadReq_hits::total       251014618                       # number of ReadReq hits
system.cpu.dcache.WriteReq_hits::switch_cpus.data     95564134                       # number of WriteReq hits
system.cpu.dcache.WriteReq_hits::total       95564134                       # number of WriteReq hits
system.cpu.dcache.demand_hits::switch_cpus.data    346578752                       # number of demand (read+write) hits
system.cpu.dcache.demand_hits::total        346578752                       # number of demand (read+write) hits
system.cpu.dcache.overall_hits::switch_cpus.data    346578752                       # number of overall hits
system.cpu.dcache.overall_hits::total       346578752                       # number of overall hits
system.cpu.dcache.ReadReq_misses::switch_cpus.data     75041265                       # number of ReadReq misses
system.cpu.dcache.ReadReq_misses::total      75041265                       # number of ReadReq misses
system.cpu.dcache.WriteReq_misses::switch_cpus.data     82571821                       # number of WriteReq misses
system.cpu.dcache.WriteReq_misses::total     82571821                       # number of WriteReq misses
system.cpu.dcache.demand_misses::switch_cpus.data    157613086                       # number of demand (read+write) misses
system.cpu.dcache.demand_misses::total      157613086                       # number of demand (read+write) misses
system.cpu.dcache.overall_misses::switch_cpus.data    157613086                       # number of overall misses
system.cpu.dcache.overall_misses::total     157613086                       # number of overall misses
system.cpu.dcache.ReadReq_miss_latency::switch_cpus.data 5987703793000                       # number of ReadReq miss cycles
system.cpu.dcache.ReadReq_miss_latency::total 5987703793000                       # number of ReadReq miss cycles
system.cpu.dcache.WriteReq_miss_latency::switch_cpus.data 4737172382074                       # number of WriteReq miss cycles
system.cpu.dcache.WriteReq_miss_latency::total 4737172382074                       # number of WriteReq miss cycles
system.cpu.dcache.demand_miss_latency::switch_cpus.data 10724876175074                       # number of demand (read+write) miss cycles
system.cpu.dcache.demand_miss_latency::total 10724876175074                       # number of demand (read+write) miss cycles
system.cpu.dcache.overall_miss_latency::switch_cpus.data 10724876175074                       # number of overall miss cycles
system.cpu.dcache.overall_miss_latency::total 10724876175074                       # number of overall miss cycles
system.cpu.dcache.ReadReq_accesses::switch_cpus.data    326055883                       # number of ReadReq accesses(hits+misses)
system.cpu.dcache.ReadReq_accesses::total    326055883                       # number of ReadReq accesses(hits+misses)
system.cpu.dcache.WriteReq_accesses::switch_cpus.data    178135955                       # number of WriteReq accesses(hits+misses)
system.cpu.dcache.WriteReq_accesses::total    178135955                       # number of WriteReq accesses(hits+misses)
system.cpu.dcache.demand_accesses::switch_cpus.data    504191838                       # number of demand (read+write) accesses
system.cpu.dcache.demand_accesses::total    504191838                       # number of demand (read+write) accesses
system.cpu.dcache.overall_accesses::switch_cpus.data    504191838                       # number of overall (read+write) accesses
system.cpu.dcache.overall_accesses::total    504191838                       # number of overall (read+write) accesses
system.cpu.dcache.ReadReq_miss_rate::switch_cpus.data     0.230148                       # miss rate for ReadReq accesses
system.cpu.dcache.ReadReq_miss_rate::total     0.230148                       # miss rate for ReadReq accesses
system.cpu.dcache.WriteReq_miss_rate::switch_cpus.data     0.463533                       # miss rate for WriteReq accesses
system.cpu.dcache.WriteReq_miss_rate::total     0.463533                       # miss rate for WriteReq accesses
system.cpu.dcache.demand_miss_rate::switch_cpus.data     0.312605                       # miss rate for demand accesses
system.cpu.dcache.demand_miss_rate::total     0.312605                       # miss rate for demand accesses
system.cpu.dcache.overall_miss_rate::switch_cpus.data     0.312605                       # miss rate for overall accesses
system.cpu.dcache.overall_miss_rate::total     0.312605                       # miss rate for overall accesses
system.cpu.dcache.ReadReq_avg_miss_latency::switch_cpus.data 79792.148933                       # average ReadReq miss latency
system.cpu.dcache.ReadReq_avg_miss_latency::total 79792.148933                       # average ReadReq miss latency
system.cpu.dcache.WriteReq_avg_miss_latency::switch_cpus.data 57370.327125                       # average WriteReq miss latency
system.cpu.dcache.WriteReq_avg_miss_latency::total 57370.327125                       # average WriteReq miss latency
system.cpu.dcache.demand_avg_miss_latency::switch_cpus.data 68045.594736                       # average overall miss latency
system.cpu.dcache.demand_avg_miss_latency::total 68045.594736                       # average overall miss latency
system.cpu.dcache.overall_avg_miss_latency::switch_cpus.data 68045.594736                       # average overall miss latency
system.cpu.dcache.overall_avg_miss_latency::total 68045.594736                       # average overall miss latency
system.cpu.dcache.blocked_cycles::no_mshrs   2324284333                       # number of cycles access was blocked
system.cpu.dcache.blocked_cycles::no_targets            0                       # number of cycles access was blocked
system.cpu.dcache.blocked::no_mshrs          69393820                       # number of cycles access was blocked
system.cpu.dcache.blocked::no_targets               0                       # number of cycles access was blocked
system.cpu.dcache.avg_blocked_cycles::no_mshrs    33.494111                       # average number of cycles each access was blocked
system.cpu.dcache.avg_blocked_cycles::no_targets          nan                       # average number of cycles each access was blocked
system.cpu.dcache.fast_writes                       0                       # number of fast writes performed
system.cpu.dcache.cache_copies                      0                       # number of cache copies performed
system.cpu.dcache.writebacks::writebacks     82571939                       # number of writebacks
system.cpu.dcache.writebacks::total          82571939                       # number of writebacks
system.cpu.dcache.ReadReq_mshr_hits::switch_cpus.data     59159222                       # number of ReadReq MSHR hits
system.cpu.dcache.ReadReq_mshr_hits::total     59159222                       # number of ReadReq MSHR hits
system.cpu.dcache.demand_mshr_hits::switch_cpus.data     59159222                       # number of demand (read+write) MSHR hits
system.cpu.dcache.demand_mshr_hits::total     59159222                       # number of demand (read+write) MSHR hits
system.cpu.dcache.overall_mshr_hits::switch_cpus.data     59159222                       # number of overall MSHR hits
system.cpu.dcache.overall_mshr_hits::total     59159222                       # number of overall MSHR hits
system.cpu.dcache.ReadReq_mshr_misses::switch_cpus.data     15882043                       # number of ReadReq MSHR misses
system.cpu.dcache.ReadReq_mshr_misses::total     15882043                       # number of ReadReq MSHR misses
system.cpu.dcache.WriteReq_mshr_misses::switch_cpus.data     82571821                       # number of WriteReq MSHR misses
system.cpu.dcache.WriteReq_mshr_misses::total     82571821                       # number of WriteReq MSHR misses
system.cpu.dcache.demand_mshr_misses::switch_cpus.data     98453864                       # number of demand (read+write) MSHR misses
system.cpu.dcache.demand_mshr_misses::total     98453864                       # number of demand (read+write) MSHR misses
system.cpu.dcache.overall_mshr_misses::switch_cpus.data     98453864                       # number of overall MSHR misses
system.cpu.dcache.overall_mshr_misses::total     98453864                       # number of overall MSHR misses
system.cpu.dcache.ReadReq_mshr_miss_latency::switch_cpus.data 1602271445000                       # number of ReadReq MSHR miss cycles
system.cpu.dcache.ReadReq_mshr_miss_latency::total 1602271445000                       # number of ReadReq MSHR miss cycles
system.cpu.dcache.WriteReq_mshr_miss_latency::switch_cpus.data 4549876760074                       # number of WriteReq MSHR miss cycles
system.cpu.dcache.WriteReq_mshr_miss_latency::total 4549876760074                       # number of WriteReq MSHR miss cycles
system.cpu.dcache.demand_mshr_miss_latency::switch_cpus.data 6152148205074                       # number of demand (read+write) MSHR miss cycles
system.cpu.dcache.demand_mshr_miss_latency::total 6152148205074                       # number of demand (read+write) MSHR miss cycles
system.cpu.dcache.overall_mshr_miss_latency::switch_cpus.data 6152148205074                       # number of overall MSHR miss cycles
system.cpu.dcache.overall_mshr_miss_latency::total 6152148205074                       # number of overall MSHR miss cycles
system.cpu.dcache.ReadReq_mshr_miss_rate::switch_cpus.data     0.048710                       # mshr miss rate for ReadReq accesses
system.cpu.dcache.ReadReq_mshr_miss_rate::total     0.048710                       # mshr miss rate for ReadReq accesses
system.cpu.dcache.WriteReq_mshr_miss_rate::switch_cpus.data     0.463533                       # mshr miss rate for WriteReq accesses
system.cpu.dcache.WriteReq_mshr_miss_rate::total     0.463533                       # mshr miss rate for WriteReq accesses
system.cpu.dcache.demand_mshr_miss_rate::switch_cpus.data     0.195271                       # mshr miss rate for demand accesses
system.cpu.dcache.demand_mshr_miss_rate::total     0.195271                       # mshr miss rate for demand accesses
system.cpu.dcache.overall_mshr_miss_rate::switch_cpus.data     0.195271                       # mshr miss rate for overall accesses
system.cpu.dcache.overall_mshr_miss_rate::total     0.195271                       # mshr miss rate for overall accesses
system.cpu.dcache.ReadReq_avg_mshr_miss_latency::switch_cpus.data 100885.726414                       # average ReadReq mshr miss latency
system.cpu.dcache.ReadReq_avg_mshr_miss_latency::total 100885.726414                       # average ReadReq mshr miss latency
system.cpu.dcache.WriteReq_avg_mshr_miss_latency::switch_cpus.data 55102.051826                       # average WriteReq mshr miss latency
system.cpu.dcache.WriteReq_avg_mshr_miss_latency::total 55102.051826                       # average WriteReq mshr miss latency
system.cpu.dcache.demand_avg_mshr_miss_latency::switch_cpus.data 62487.625728                       # average overall mshr miss latency
system.cpu.dcache.demand_avg_mshr_miss_latency::total 62487.625728                       # average overall mshr miss latency
system.cpu.dcache.overall_avg_mshr_miss_latency::switch_cpus.data 62487.625728                       # average overall mshr miss latency
system.cpu.dcache.overall_avg_mshr_miss_latency::total 62487.625728                       # average overall mshr miss latency
system.cpu.dcache.no_allocate_misses                0                       # Number of misses that were no-allocate

---------- End Simulation Statistics   ----------
