
---------- Begin Simulation Statistics ----------
sim_seconds                                  1.171559                       # Number of seconds simulated
sim_ticks                                1171558921347                       # Number of ticks simulated
final_tick                               1504636405785                       # Number of ticks from beginning of simulation (restored from checkpoints and never reset)
sim_freq                                 1000000000000                       # Frequency of simulated ticks
host_inst_rate                                 170367                       # Simulator instruction rate (inst/s)
host_op_rate                                   170367                       # Simulator op (including micro ops) rate (op/s)
host_tick_rate                               66531829                       # Simulator tick rate (ticks/s)
host_mem_usage                                2349196                       # Number of bytes of host memory used
host_seconds                                 17609.00                       # Real time elapsed on the host
sim_insts                                  3000000007                       # Number of instructions simulated
sim_ops                                    3000000007                       # Number of ops (including micro ops) simulated
system.mem_ctrls.bytes_read::switch_cpus.inst          128                       # Number of bytes read from this memory
system.mem_ctrls.bytes_read::switch_cpus.data   2048511424                       # Number of bytes read from this memory
system.mem_ctrls.bytes_read::total         2048511552                       # Number of bytes read from this memory
system.mem_ctrls.bytes_inst_read::switch_cpus.inst          128                       # Number of instructions bytes read from this memory
system.mem_ctrls.bytes_inst_read::total           128                       # Number of instructions bytes read from this memory
system.mem_ctrls.bytes_written::writebacks   1032341888                       # Number of bytes written to this memory
system.mem_ctrls.bytes_written::total      1032341888                       # Number of bytes written to this memory
system.mem_ctrls.num_reads::switch_cpus.inst            2                       # Number of read requests responded to by this memory
system.mem_ctrls.num_reads::switch_cpus.data     32007991                       # Number of read requests responded to by this memory
system.mem_ctrls.num_reads::total            32007993                       # Number of read requests responded to by this memory
system.mem_ctrls.num_writes::writebacks      16130342                       # Number of write requests responded to by this memory
system.mem_ctrls.num_writes::total           16130342                       # Number of write requests responded to by this memory
system.mem_ctrls.bw_read::switch_cpus.inst          109                       # Total read bandwidth from this memory (bytes/s)
system.mem_ctrls.bw_read::switch_cpus.data   1748534697                       # Total read bandwidth from this memory (bytes/s)
system.mem_ctrls.bw_read::total            1748534807                       # Total read bandwidth from this memory (bytes/s)
system.mem_ctrls.bw_inst_read::switch_cpus.inst          109                       # Instruction read bandwidth from this memory (bytes/s)
system.mem_ctrls.bw_inst_read::total              109                       # Instruction read bandwidth from this memory (bytes/s)
system.mem_ctrls.bw_write::writebacks       881169414                       # Write bandwidth from this memory (bytes/s)
system.mem_ctrls.bw_write::total            881169414                       # Write bandwidth from this memory (bytes/s)
system.mem_ctrls.bw_total::writebacks       881169414                       # Total bandwidth to/from this memory (bytes/s)
system.mem_ctrls.bw_total::switch_cpus.inst          109                       # Total bandwidth to/from this memory (bytes/s)
system.mem_ctrls.bw_total::switch_cpus.data   1748534697                       # Total bandwidth to/from this memory (bytes/s)
system.mem_ctrls.bw_total::total           2629704220                       # Total bandwidth to/from this memory (bytes/s)
system.mem_ctrls.readReqs                    32007993                       # Total number of read requests accepted by DRAM controller
system.mem_ctrls.writeReqs                   16130342                       # Total number of write requests accepted by DRAM controller
system.mem_ctrls.readBursts                  32007993                       # Total number of DRAM read bursts. Each DRAM read request translates to either one or multiple DRAM read bursts
system.mem_ctrls.writeBursts                 16130342                       # Total number of DRAM write bursts. Each DRAM write request translates to either one or multiple DRAM write bursts
system.mem_ctrls.bytesRead                 2048511552                       # Total number of bytes read from memory
system.mem_ctrls.bytesWritten              1032341888                       # Total number of bytes written to memory
system.mem_ctrls.bytesConsumedRd           2048511552                       # bytesRead derated as per pkt->getSize()
system.mem_ctrls.bytesConsumedWr           1032341888                       # bytesWritten derated as per pkt->getSize()
system.mem_ctrls.servicedByWrQ                      0                       # Number of DRAM read bursts serviced by write Q
system.mem_ctrls.neitherReadNorWrite                0                       # Reqs where no action is needed
system.mem_ctrls.perBankRdReqs::0             2000399                       # Track reads on a per bank basis
system.mem_ctrls.perBankRdReqs::1             2000448                       # Track reads on a per bank basis
system.mem_ctrls.perBankRdReqs::2             2000371                       # Track reads on a per bank basis
system.mem_ctrls.perBankRdReqs::3             2000466                       # Track reads on a per bank basis
system.mem_ctrls.perBankRdReqs::4             2000529                       # Track reads on a per bank basis
system.mem_ctrls.perBankRdReqs::5             2000422                       # Track reads on a per bank basis
system.mem_ctrls.perBankRdReqs::6             2000456                       # Track reads on a per bank basis
system.mem_ctrls.perBankRdReqs::7             2000720                       # Track reads on a per bank basis
system.mem_ctrls.perBankRdReqs::8             2000702                       # Track reads on a per bank basis
system.mem_ctrls.perBankRdReqs::9             2000452                       # Track reads on a per bank basis
system.mem_ctrls.perBankRdReqs::10            2000454                       # Track reads on a per bank basis
system.mem_ctrls.perBankRdReqs::11            2000640                       # Track reads on a per bank basis
system.mem_ctrls.perBankRdReqs::12            2000605                       # Track reads on a per bank basis
system.mem_ctrls.perBankRdReqs::13            2000486                       # Track reads on a per bank basis
system.mem_ctrls.perBankRdReqs::14            2000459                       # Track reads on a per bank basis
system.mem_ctrls.perBankRdReqs::15            2000384                       # Track reads on a per bank basis
system.mem_ctrls.perBankWrReqs::0             1007943                       # Track writes on a per bank basis
system.mem_ctrls.perBankWrReqs::1             1007999                       # Track writes on a per bank basis
system.mem_ctrls.perBankWrReqs::2             1007976                       # Track writes on a per bank basis
system.mem_ctrls.perBankWrReqs::3             1008127                       # Track writes on a per bank basis
system.mem_ctrls.perBankWrReqs::4             1008196                       # Track writes on a per bank basis
system.mem_ctrls.perBankWrReqs::5             1008264                       # Track writes on a per bank basis
system.mem_ctrls.perBankWrReqs::6             1008300                       # Track writes on a per bank basis
system.mem_ctrls.perBankWrReqs::7             1008404                       # Track writes on a per bank basis
system.mem_ctrls.perBankWrReqs::8             1008381                       # Track writes on a per bank basis
system.mem_ctrls.perBankWrReqs::9             1008301                       # Track writes on a per bank basis
system.mem_ctrls.perBankWrReqs::10            1008242                       # Track writes on a per bank basis
system.mem_ctrls.perBankWrReqs::11            1008190                       # Track writes on a per bank basis
system.mem_ctrls.perBankWrReqs::12            1008119                       # Track writes on a per bank basis
system.mem_ctrls.perBankWrReqs::13            1008015                       # Track writes on a per bank basis
system.mem_ctrls.perBankWrReqs::14            1007962                       # Track writes on a per bank basis
system.mem_ctrls.perBankWrReqs::15            1007923                       # Track writes on a per bank basis
system.mem_ctrls.numRdRetry                         0                       # Number of times rd buffer was full causing retry
system.mem_ctrls.numWrRetry                         0                       # Number of times wr buffer was full causing retry
system.mem_ctrls.totGap                  1171558755513                       # Total gap between requests
system.mem_ctrls.readPktSize::0                     0                       # Categorize read packet sizes
system.mem_ctrls.readPktSize::1                     0                       # Categorize read packet sizes
system.mem_ctrls.readPktSize::2                     0                       # Categorize read packet sizes
system.mem_ctrls.readPktSize::3                     0                       # Categorize read packet sizes
system.mem_ctrls.readPktSize::4                     0                       # Categorize read packet sizes
system.mem_ctrls.readPktSize::5                     0                       # Categorize read packet sizes
system.mem_ctrls.readPktSize::6              32007993                       # Categorize read packet sizes
system.mem_ctrls.writePktSize::0                    0                       # Categorize write packet sizes
system.mem_ctrls.writePktSize::1                    0                       # Categorize write packet sizes
system.mem_ctrls.writePktSize::2                    0                       # Categorize write packet sizes
system.mem_ctrls.writePktSize::3                    0                       # Categorize write packet sizes
system.mem_ctrls.writePktSize::4                    0                       # Categorize write packet sizes
system.mem_ctrls.writePktSize::5                    0                       # Categorize write packet sizes
system.mem_ctrls.writePktSize::6             16130342                       # Categorize write packet sizes
system.mem_ctrls.rdQLenPdf::0                12002306                       # What read queue length does an incoming req see
system.mem_ctrls.rdQLenPdf::1                 7752765                       # What read queue length does an incoming req see
system.mem_ctrls.rdQLenPdf::2                 6377629                       # What read queue length does an incoming req see
system.mem_ctrls.rdQLenPdf::3                 5875293                       # What read queue length does an incoming req see
system.mem_ctrls.rdQLenPdf::4                       0                       # What read queue length does an incoming req see
system.mem_ctrls.rdQLenPdf::5                       0                       # What read queue length does an incoming req see
system.mem_ctrls.rdQLenPdf::6                       0                       # What read queue length does an incoming req see
system.mem_ctrls.rdQLenPdf::7                       0                       # What read queue length does an incoming req see
system.mem_ctrls.rdQLenPdf::8                       0                       # What read queue length does an incoming req see
system.mem_ctrls.rdQLenPdf::9                       0                       # What read queue length does an incoming req see
system.mem_ctrls.rdQLenPdf::10                      0                       # What read queue length does an incoming req see
system.mem_ctrls.rdQLenPdf::11                      0                       # What read queue length does an incoming req see
system.mem_ctrls.rdQLenPdf::12                      0                       # What read queue length does an incoming req see
system.mem_ctrls.rdQLenPdf::13                      0                       # What read queue length does an incoming req see
system.mem_ctrls.rdQLenPdf::14                      0                       # What read queue length does an incoming req see
system.mem_ctrls.rdQLenPdf::15                      0                       # What read queue length does an incoming req see
system.mem_ctrls.rdQLenPdf::16                      0                       # What read queue length does an incoming req see
system.mem_ctrls.rdQLenPdf::17                      0                       # What read queue length does an incoming req see
system.mem_ctrls.rdQLenPdf::18                      0                       # What read queue length does an incoming req see
system.mem_ctrls.rdQLenPdf::19                      0                       # What read queue length does an incoming req see
system.mem_ctrls.rdQLenPdf::20                      0                       # What read queue length does an incoming req see
system.mem_ctrls.rdQLenPdf::21                      0                       # What read queue length does an incoming req see
system.mem_ctrls.rdQLenPdf::22                      0                       # What read queue length does an incoming req see
system.mem_ctrls.rdQLenPdf::23                      0                       # What read queue length does an incoming req see
system.mem_ctrls.rdQLenPdf::24                      0                       # What read queue length does an incoming req see
system.mem_ctrls.rdQLenPdf::25                      0                       # What read queue length does an incoming req see
system.mem_ctrls.rdQLenPdf::26                      0                       # What read queue length does an incoming req see
system.mem_ctrls.rdQLenPdf::27                      0                       # What read queue length does an incoming req see
system.mem_ctrls.rdQLenPdf::28                      0                       # What read queue length does an incoming req see
system.mem_ctrls.rdQLenPdf::29                      0                       # What read queue length does an incoming req see
system.mem_ctrls.rdQLenPdf::30                      0                       # What read queue length does an incoming req see
system.mem_ctrls.rdQLenPdf::31                      0                       # What read queue length does an incoming req see
system.mem_ctrls.wrQLenPdf::0                  566245                       # What write queue length does an incoming req see
system.mem_ctrls.wrQLenPdf::1                  684050                       # What write queue length does an incoming req see
system.mem_ctrls.wrQLenPdf::2                  699438                       # What write queue length does an incoming req see
system.mem_ctrls.wrQLenPdf::3                  701231                       # What write queue length does an incoming req see
system.mem_ctrls.wrQLenPdf::4                  701320                       # What write queue length does an incoming req see
system.mem_ctrls.wrQLenPdf::5                  701319                       # What write queue length does an incoming req see
system.mem_ctrls.wrQLenPdf::6                  701319                       # What write queue length does an incoming req see
system.mem_ctrls.wrQLenPdf::7                  701319                       # What write queue length does an incoming req see
system.mem_ctrls.wrQLenPdf::8                  701319                       # What write queue length does an incoming req see
system.mem_ctrls.wrQLenPdf::9                  701319                       # What write queue length does an incoming req see
system.mem_ctrls.wrQLenPdf::10                 701319                       # What write queue length does an incoming req see
system.mem_ctrls.wrQLenPdf::11                 701319                       # What write queue length does an incoming req see
system.mem_ctrls.wrQLenPdf::12                 701319                       # What write queue length does an incoming req see
system.mem_ctrls.wrQLenPdf::13                 701319                       # What write queue length does an incoming req see
system.mem_ctrls.wrQLenPdf::14                 701319                       # What write queue length does an incoming req see
system.mem_ctrls.wrQLenPdf::15                 701319                       # What write queue length does an incoming req see
system.mem_ctrls.wrQLenPdf::16                 701319                       # What write queue length does an incoming req see
system.mem_ctrls.wrQLenPdf::17                 701319                       # What write queue length does an incoming req see
system.mem_ctrls.wrQLenPdf::18                 701319                       # What write queue length does an incoming req see
system.mem_ctrls.wrQLenPdf::19                 701319                       # What write queue length does an incoming req see
system.mem_ctrls.wrQLenPdf::20                 701319                       # What write queue length does an incoming req see
system.mem_ctrls.wrQLenPdf::21                 701319                       # What write queue length does an incoming req see
system.mem_ctrls.wrQLenPdf::22                 701319                       # What write queue length does an incoming req see
system.mem_ctrls.wrQLenPdf::23                 135075                       # What write queue length does an incoming req see
system.mem_ctrls.wrQLenPdf::24                  17270                       # What write queue length does an incoming req see
system.mem_ctrls.wrQLenPdf::25                   1882                       # What write queue length does an incoming req see
system.mem_ctrls.wrQLenPdf::26                     89                       # What write queue length does an incoming req see
system.mem_ctrls.wrQLenPdf::27                      0                       # What write queue length does an incoming req see
system.mem_ctrls.wrQLenPdf::28                      0                       # What write queue length does an incoming req see
system.mem_ctrls.wrQLenPdf::29                      0                       # What write queue length does an incoming req see
system.mem_ctrls.wrQLenPdf::30                      0                       # What write queue length does an incoming req see
system.mem_ctrls.wrQLenPdf::31                      0                       # What write queue length does an incoming req see
system.mem_ctrls.bytesPerActivate::samples      6517160                       # Bytes accessed per row activation
system.mem_ctrls.bytesPerActivate::mean    472.729289                       # Bytes accessed per row activation
system.mem_ctrls.bytesPerActivate::gmean   240.168015                       # Bytes accessed per row activation
system.mem_ctrls.bytesPerActivate::stdev   930.148653                       # Bytes accessed per row activation
system.mem_ctrls.bytesPerActivate::64-65      1495232     22.94%     22.94% # Bytes accessed per row activation
system.mem_ctrls.bytesPerActivate::128-129      1253062     19.23%     42.17% # Bytes accessed per row activation
system.mem_ctrls.bytesPerActivate::192-193       761994     11.69%     53.86% # Bytes accessed per row activation
system.mem_ctrls.bytesPerActivate::256-257       374828      5.75%     59.61% # Bytes accessed per row activation
system.mem_ctrls.bytesPerActivate::320-321       267432      4.10%     63.72% # Bytes accessed per row activation
system.mem_ctrls.bytesPerActivate::384-385       178555      2.74%     66.46% # Bytes accessed per row activation
system.mem_ctrls.bytesPerActivate::448-449       194389      2.98%     69.44% # Bytes accessed per row activation
system.mem_ctrls.bytesPerActivate::512-513       258930      3.97%     73.41% # Bytes accessed per row activation
system.mem_ctrls.bytesPerActivate::576-577       207674      3.19%     76.60% # Bytes accessed per row activation
system.mem_ctrls.bytesPerActivate::640-641       187694      2.88%     79.48% # Bytes accessed per row activation
system.mem_ctrls.bytesPerActivate::704-705       129244      1.98%     81.46% # Bytes accessed per row activation
system.mem_ctrls.bytesPerActivate::768-769       211370      3.24%     84.71% # Bytes accessed per row activation
system.mem_ctrls.bytesPerActivate::832-833       184406      2.83%     87.54% # Bytes accessed per row activation
system.mem_ctrls.bytesPerActivate::896-897       161283      2.47%     90.01% # Bytes accessed per row activation
system.mem_ctrls.bytesPerActivate::960-961       159222      2.44%     92.45% # Bytes accessed per row activation
system.mem_ctrls.bytesPerActivate::1024-1025        51462      0.79%     93.24% # Bytes accessed per row activation
system.mem_ctrls.bytesPerActivate::1088-1089        40328      0.62%     93.86% # Bytes accessed per row activation
system.mem_ctrls.bytesPerActivate::1152-1153        38474      0.59%     94.45% # Bytes accessed per row activation
system.mem_ctrls.bytesPerActivate::1216-1217        24501      0.38%     94.83% # Bytes accessed per row activation
system.mem_ctrls.bytesPerActivate::1280-1281        32757      0.50%     95.33% # Bytes accessed per row activation
system.mem_ctrls.bytesPerActivate::1344-1345        24190      0.37%     95.70% # Bytes accessed per row activation
system.mem_ctrls.bytesPerActivate::1408-1409        24962      0.38%     96.08% # Bytes accessed per row activation
system.mem_ctrls.bytesPerActivate::1472-1473        26655      0.41%     96.49% # Bytes accessed per row activation
system.mem_ctrls.bytesPerActivate::1536-1537        21177      0.32%     96.82% # Bytes accessed per row activation
system.mem_ctrls.bytesPerActivate::1600-1601        26484      0.41%     97.22% # Bytes accessed per row activation
system.mem_ctrls.bytesPerActivate::1664-1665         9320      0.14%     97.37% # Bytes accessed per row activation
system.mem_ctrls.bytesPerActivate::1728-1729        10022      0.15%     97.52% # Bytes accessed per row activation
system.mem_ctrls.bytesPerActivate::1792-1793         6808      0.10%     97.63% # Bytes accessed per row activation
system.mem_ctrls.bytesPerActivate::1856-1857         5920      0.09%     97.72% # Bytes accessed per row activation
system.mem_ctrls.bytesPerActivate::1920-1921         4094      0.06%     97.78% # Bytes accessed per row activation
system.mem_ctrls.bytesPerActivate::1984-1985         2514      0.04%     97.82% # Bytes accessed per row activation
system.mem_ctrls.bytesPerActivate::2048-2049         1937      0.03%     97.85% # Bytes accessed per row activation
system.mem_ctrls.bytesPerActivate::2112-2113         1882      0.03%     97.88% # Bytes accessed per row activation
system.mem_ctrls.bytesPerActivate::2176-2177         1662      0.03%     97.90% # Bytes accessed per row activation
system.mem_ctrls.bytesPerActivate::2240-2241         1468      0.02%     97.93% # Bytes accessed per row activation
system.mem_ctrls.bytesPerActivate::2304-2305         1795      0.03%     97.95% # Bytes accessed per row activation
system.mem_ctrls.bytesPerActivate::2368-2369         1756      0.03%     97.98% # Bytes accessed per row activation
system.mem_ctrls.bytesPerActivate::2432-2433         1651      0.03%     98.00% # Bytes accessed per row activation
system.mem_ctrls.bytesPerActivate::2496-2497         1653      0.03%     98.03% # Bytes accessed per row activation
system.mem_ctrls.bytesPerActivate::2560-2561         1619      0.02%     98.06% # Bytes accessed per row activation
system.mem_ctrls.bytesPerActivate::2624-2625         1314      0.02%     98.08% # Bytes accessed per row activation
system.mem_ctrls.bytesPerActivate::2688-2689         1520      0.02%     98.10% # Bytes accessed per row activation
system.mem_ctrls.bytesPerActivate::2752-2753         1176      0.02%     98.12% # Bytes accessed per row activation
system.mem_ctrls.bytesPerActivate::2816-2817         1424      0.02%     98.14% # Bytes accessed per row activation
system.mem_ctrls.bytesPerActivate::2880-2881         1641      0.03%     98.16% # Bytes accessed per row activation
system.mem_ctrls.bytesPerActivate::2944-2945         2257      0.03%     98.20% # Bytes accessed per row activation
system.mem_ctrls.bytesPerActivate::3008-3009         2854      0.04%     98.24% # Bytes accessed per row activation
system.mem_ctrls.bytesPerActivate::3072-3073         3773      0.06%     98.30% # Bytes accessed per row activation
system.mem_ctrls.bytesPerActivate::3136-3137         4939      0.08%     98.38% # Bytes accessed per row activation
system.mem_ctrls.bytesPerActivate::3200-3201         5818      0.09%     98.47% # Bytes accessed per row activation
system.mem_ctrls.bytesPerActivate::3264-3265         5619      0.09%     98.55% # Bytes accessed per row activation
system.mem_ctrls.bytesPerActivate::3328-3329         5486      0.08%     98.64% # Bytes accessed per row activation
system.mem_ctrls.bytesPerActivate::3392-3393         5276      0.08%     98.72% # Bytes accessed per row activation
system.mem_ctrls.bytesPerActivate::3456-3457         4082      0.06%     98.78% # Bytes accessed per row activation
system.mem_ctrls.bytesPerActivate::3520-3521         3195      0.05%     98.83% # Bytes accessed per row activation
system.mem_ctrls.bytesPerActivate::3584-3585         1809      0.03%     98.86% # Bytes accessed per row activation
system.mem_ctrls.bytesPerActivate::3648-3649         1095      0.02%     98.87% # Bytes accessed per row activation
system.mem_ctrls.bytesPerActivate::3712-3713          576      0.01%     98.88% # Bytes accessed per row activation
system.mem_ctrls.bytesPerActivate::3776-3777          286      0.00%     98.89% # Bytes accessed per row activation
system.mem_ctrls.bytesPerActivate::3840-3841          145      0.00%     98.89% # Bytes accessed per row activation
system.mem_ctrls.bytesPerActivate::3904-3905            9      0.00%     98.89% # Bytes accessed per row activation
system.mem_ctrls.bytesPerActivate::3968-3969            7      0.00%     98.89% # Bytes accessed per row activation
system.mem_ctrls.bytesPerActivate::4032-4033           15      0.00%     98.89% # Bytes accessed per row activation
system.mem_ctrls.bytesPerActivate::4096-4097            7      0.00%     98.89% # Bytes accessed per row activation
system.mem_ctrls.bytesPerActivate::4160-4161           10      0.00%     98.89% # Bytes accessed per row activation
system.mem_ctrls.bytesPerActivate::4224-4225           25      0.00%     98.89% # Bytes accessed per row activation
system.mem_ctrls.bytesPerActivate::4288-4289           12      0.00%     98.89% # Bytes accessed per row activation
system.mem_ctrls.bytesPerActivate::4352-4353           18      0.00%     98.89% # Bytes accessed per row activation
system.mem_ctrls.bytesPerActivate::4416-4417           17      0.00%     98.89% # Bytes accessed per row activation
system.mem_ctrls.bytesPerActivate::4480-4481           16      0.00%     98.89% # Bytes accessed per row activation
system.mem_ctrls.bytesPerActivate::4544-4545           22      0.00%     98.89% # Bytes accessed per row activation
system.mem_ctrls.bytesPerActivate::4608-4609           14      0.00%     98.89% # Bytes accessed per row activation
system.mem_ctrls.bytesPerActivate::4672-4673           11      0.00%     98.89% # Bytes accessed per row activation
system.mem_ctrls.bytesPerActivate::4736-4737            5      0.00%     98.89% # Bytes accessed per row activation
system.mem_ctrls.bytesPerActivate::4800-4801            3      0.00%     98.89% # Bytes accessed per row activation
system.mem_ctrls.bytesPerActivate::4864-4865           53      0.00%     98.89% # Bytes accessed per row activation
system.mem_ctrls.bytesPerActivate::4928-4929          151      0.00%     98.89% # Bytes accessed per row activation
system.mem_ctrls.bytesPerActivate::4992-4993            2      0.00%     98.89% # Bytes accessed per row activation
system.mem_ctrls.bytesPerActivate::5120-5121            2      0.00%     98.89% # Bytes accessed per row activation
system.mem_ctrls.bytesPerActivate::5440-5441            1      0.00%     98.89% # Bytes accessed per row activation
system.mem_ctrls.bytesPerActivate::5504-5505            2      0.00%     98.89% # Bytes accessed per row activation
system.mem_ctrls.bytesPerActivate::5568-5569            5      0.00%     98.89% # Bytes accessed per row activation
system.mem_ctrls.bytesPerActivate::5632-5633            1      0.00%     98.89% # Bytes accessed per row activation
system.mem_ctrls.bytesPerActivate::5696-5697            1      0.00%     98.89% # Bytes accessed per row activation
system.mem_ctrls.bytesPerActivate::6080-6081            1      0.00%     98.89% # Bytes accessed per row activation
system.mem_ctrls.bytesPerActivate::6144-6145            3      0.00%     98.89% # Bytes accessed per row activation
system.mem_ctrls.bytesPerActivate::6528-6529          216      0.00%     98.90% # Bytes accessed per row activation
system.mem_ctrls.bytesPerActivate::6592-6593          146      0.00%     98.90% # Bytes accessed per row activation
system.mem_ctrls.bytesPerActivate::6720-6721            1      0.00%     98.90% # Bytes accessed per row activation
system.mem_ctrls.bytesPerActivate::6848-6849            3      0.00%     98.90% # Bytes accessed per row activation
system.mem_ctrls.bytesPerActivate::8128-8129            2      0.00%     98.90% # Bytes accessed per row activation
system.mem_ctrls.bytesPerActivate::8192-8193        71688      1.10%    100.00% # Bytes accessed per row activation
system.mem_ctrls.bytesPerActivate::total      6517160                       # Bytes accessed per row activation
system.mem_ctrls.totQLat                 625346524459                       # Total cycles spent in queuing delays
system.mem_ctrls.totMemAccLat            1227780666959                       # Sum of mem lat for all requests
system.mem_ctrls.totBusLat               160039965000                       # Total cycles spent in databus access
system.mem_ctrls.totBankLat              442394177500                       # Total cycles spent in bank access
system.mem_ctrls.avgQLat                     19537.20                       # Average queueing delay per request
system.mem_ctrls.avgBankLat                  13821.37                       # Average bank access latency per request
system.mem_ctrls.avgBusLat                    5000.00                       # Average bus latency per request
system.mem_ctrls.avgMemAccLat                38358.56                       # Average memory access latency
system.mem_ctrls.avgRdBW                      1748.53                       # Average achieved read bandwidth in MB/s
system.mem_ctrls.avgWrBW                       881.17                       # Average achieved write bandwidth in MB/s
system.mem_ctrls.avgConsumedRdBW              1748.53                       # Average consumed read bandwidth in MB/s
system.mem_ctrls.avgConsumedWrBW               881.17                       # Average consumed write bandwidth in MB/s
system.mem_ctrls.peakBW                      12800.00                       # Theoretical peak bandwidth in MB/s
system.mem_ctrls.busUtil                        20.54                       # Data bus utilization in percentage
system.mem_ctrls.avgRdQLen                       1.05                       # Average read queue length over time
system.mem_ctrls.avgWrQLen                       9.92                       # Average write queue length over time
system.mem_ctrls.readRowHits                 28495843                       # Number of row buffer hits during reads
system.mem_ctrls.writeRowHits                13125327                       # Number of row buffer hits during writes
system.mem_ctrls.readRowHitRate                 89.03                       # Row buffer hit rate for reads
system.mem_ctrls.writeRowHitRate                81.37                       # Row buffer hit rate for writes
system.mem_ctrls.avgGap                      24337.33                       # Average gap between requests
system.membus.throughput                   2629704220                       # Throughput (bytes/s)
system.membus.trans_dist::ReadReq            15878516                       # Transaction distribution
system.membus.trans_dist::ReadResp           15878516                       # Transaction distribution
system.membus.trans_dist::Writeback          16130342                       # Transaction distribution
system.membus.trans_dist::ReadExReq          16129477                       # Transaction distribution
system.membus.trans_dist::ReadExResp         16129477                       # Transaction distribution
system.membus.pkt_count_system.l2.mem_side::system.mem_ctrls.port     80146328                       # Packet count per connected master and slave (bytes)
system.membus.pkt_count::total               80146328                       # Packet count per connected master and slave (bytes)
system.membus.tot_pkt_size_system.l2.mem_side::system.mem_ctrls.port   3080853440                       # Cumulative packet size per connected master and slave (bytes)
system.membus.tot_pkt_size::total          3080853440                       # Cumulative packet size per connected master and slave (bytes)
system.membus.data_through_bus             3080853440                       # Total data (bytes)
system.membus.snoop_data_through_bus                0                       # Total snoop data (bytes)
system.membus.reqLayer0.occupancy         59001296643                       # Layer occupancy (ticks)
system.membus.reqLayer0.utilization               5.0                       # Layer utilization (%)
system.membus.respLayer1.occupancy       101880757963                       # Layer occupancy (ticks)
system.membus.respLayer1.utilization              8.7                       # Layer utilization (%)
system.switch_cpus.branchPred.lookups        45869692                       # Number of BP lookups
system.switch_cpus.branchPred.condPredicted     33943433                       # Number of conditional branches predicted
system.switch_cpus.branchPred.condIncorrect        84165                       # Number of conditional branches incorrect
system.switch_cpus.branchPred.BTBLookups     19569924                       # Number of BTB lookups
system.switch_cpus.branchPred.BTBHits        19569914                       # Number of BTB hits
system.switch_cpus.branchPred.BTBCorrect            0                       # Number of correct BTB predictions (this stat may not work properly.
system.switch_cpus.branchPred.BTBHitPct     99.999949                       # BTB Hit Percentage
system.switch_cpus.branchPred.usedRAS              27                       # Number of times the RAS was used to get a target.
system.switch_cpus.branchPred.RASInCorrect            1                       # Number of incorrect RAS predictions.
system.switch_cpus.dtb.fetch_hits                   0                       # ITB hits
system.switch_cpus.dtb.fetch_misses                 0                       # ITB misses
system.switch_cpus.dtb.fetch_acv                    0                       # ITB acv
system.switch_cpus.dtb.fetch_accesses               0                       # ITB accesses
system.switch_cpus.dtb.read_hits            738467326                       # DTB read hits
system.switch_cpus.dtb.read_misses            1040222                       # DTB read misses
system.switch_cpus.dtb.read_acv                     0                       # DTB read access violations
system.switch_cpus.dtb.read_accesses        739507548                       # DTB read accesses
system.switch_cpus.dtb.write_hits           214310557                       # DTB write hits
system.switch_cpus.dtb.write_misses            405264                       # DTB write misses
system.switch_cpus.dtb.write_acv                    0                       # DTB write access violations
system.switch_cpus.dtb.write_accesses       214715821                       # DTB write accesses
system.switch_cpus.dtb.data_hits            952777883                       # DTB hits
system.switch_cpus.dtb.data_misses            1445486                       # DTB misses
system.switch_cpus.dtb.data_acv                     0                       # DTB access violations
system.switch_cpus.dtb.data_accesses        954223369                       # DTB accesses
system.switch_cpus.itb.fetch_hits           412514644                       # ITB hits
system.switch_cpus.itb.fetch_misses                 6                       # ITB misses
system.switch_cpus.itb.fetch_acv                    0                       # ITB acv
system.switch_cpus.itb.fetch_accesses       412514650                       # ITB accesses
system.switch_cpus.itb.read_hits                    0                       # DTB read hits
system.switch_cpus.itb.read_misses                  0                       # DTB read misses
system.switch_cpus.itb.read_acv                     0                       # DTB read access violations
system.switch_cpus.itb.read_accesses                0                       # DTB read accesses
system.switch_cpus.itb.write_hits                   0                       # DTB write hits
system.switch_cpus.itb.write_misses                 0                       # DTB write misses
system.switch_cpus.itb.write_acv                    0                       # DTB write access violations
system.switch_cpus.itb.write_accesses               0                       # DTB write accesses
system.switch_cpus.itb.data_hits                    0                       # DTB hits
system.switch_cpus.itb.data_misses                  0                       # DTB misses
system.switch_cpus.itb.data_acv                     0                       # DTB access violations
system.switch_cpus.itb.data_accesses                0                       # DTB accesses
system.cpu.workload.num_syscalls                    0                       # Number of system calls
system.switch_cpus.numCycles               3518194959                       # number of cpu cycles simulated
system.switch_cpus.numWorkItemsStarted              0                       # number of work items this cpu started
system.switch_cpus.numWorkItemsCompleted            0                       # number of work items this cpu completed
system.switch_cpus.fetch.icacheStallCycles    879828237                       # Number of cycles fetch is stalled on an Icache miss
system.switch_cpus.fetch.Insts             4186986455                       # Number of instructions fetch has processed
system.switch_cpus.fetch.Branches            45869692                       # Number of branches that fetch encountered
system.switch_cpus.fetch.predictedBranches     19569941                       # Number of branches that fetch has predicted taken
system.switch_cpus.fetch.Cycles             566630610                       # Number of cycles fetch has run and was not squashing or blocked
system.switch_cpus.fetch.SquashCycles       238427932                       # Number of cycles fetch has spent squashing
system.switch_cpus.fetch.BlockedCycles     1726246040                       # Number of cycles fetch has spent blocked
system.switch_cpus.fetch.MiscStallCycles            3                       # Number of cycles fetch has spent waiting on interrupts, or bad addresses, or out of MSHRs
system.switch_cpus.fetch.PendingTrapStallCycles          266                       # Number of stall cycles due to pending traps
system.switch_cpus.fetch.CacheLines         412514644                       # Number of cache lines fetched
system.switch_cpus.fetch.IcacheSquashes      32086457                       # Number of outstanding Icache misses that were squashed
system.switch_cpus.fetch.rateDist::samples   3324165670                       # Number of instructions fetched each cycle (Total)
system.switch_cpus.fetch.rateDist::mean      1.259560                       # Number of instructions fetched each cycle (Total)
system.switch_cpus.fetch.rateDist::stdev     2.838985                       # Number of instructions fetched each cycle (Total)
system.switch_cpus.fetch.rateDist::underflows            0      0.00%      0.00% # Number of instructions fetched each cycle (Total)
system.switch_cpus.fetch.rateDist::0       2757535060     82.95%     82.95% # Number of instructions fetched each cycle (Total)
system.switch_cpus.fetch.rateDist::1            13210      0.00%     82.95% # Number of instructions fetched each cycle (Total)
system.switch_cpus.fetch.rateDist::2          2173564      0.07%     83.02% # Number of instructions fetched each cycle (Total)
system.switch_cpus.fetch.rateDist::3         35277959      1.06%     84.08% # Number of instructions fetched each cycle (Total)
system.switch_cpus.fetch.rateDist::4          2855617      0.09%     84.17% # Number of instructions fetched each cycle (Total)
system.switch_cpus.fetch.rateDist::5         25738442      0.77%     84.94% # Number of instructions fetched each cycle (Total)
system.switch_cpus.fetch.rateDist::6         16245634      0.49%     85.43% # Number of instructions fetched each cycle (Total)
system.switch_cpus.fetch.rateDist::7         35405714      1.07%     86.50% # Number of instructions fetched each cycle (Total)
system.switch_cpus.fetch.rateDist::8        448920470     13.50%    100.00% # Number of instructions fetched each cycle (Total)
system.switch_cpus.fetch.rateDist::overflows            0      0.00%    100.00% # Number of instructions fetched each cycle (Total)
system.switch_cpus.fetch.rateDist::min_value            0                       # Number of instructions fetched each cycle (Total)
system.switch_cpus.fetch.rateDist::max_value            8                       # Number of instructions fetched each cycle (Total)
system.switch_cpus.fetch.rateDist::total   3324165670                       # Number of instructions fetched each cycle (Total)
system.switch_cpus.fetch.branchRate          0.013038                       # Number of branch fetches per cycle
system.switch_cpus.fetch.rate                1.190095                       # Number of inst fetches per cycle
system.switch_cpus.decode.IdleCycles        939265166                       # Number of cycles decode is idle
system.switch_cpus.decode.BlockedCycles    1667878175                       # Number of cycles decode is blocked
system.switch_cpus.decode.RunCycles         555235928                       # Number of cycles decode is running
system.switch_cpus.decode.UnblockCycles      10325892                       # Number of cycles decode is unblocking
system.switch_cpus.decode.SquashCycles      151460508                       # Number of cycles decode is squashing
system.switch_cpus.decode.BranchResolved     11925338                       # Number of times decode resolved a branch
system.switch_cpus.decode.BranchMispred             6                       # Number of times decode detected a branch misprediction
system.switch_cpus.decode.DecodedInsts     4178615701                       # Number of instructions handled by decode
system.switch_cpus.decode.SquashedInsts            38                       # Number of squashed instructions handled by decode
system.switch_cpus.rename.SquashCycles      151460508                       # Number of cycles rename is squashing
system.switch_cpus.rename.IdleCycles        983898619                       # Number of cycles rename is idle
system.switch_cpus.rename.BlockCycles      1516440902                       # Number of cycles rename is blocking
system.switch_cpus.rename.serializeStallCycles            0                       # count of cycles rename stalled for serializing inst
system.switch_cpus.rename.RunCycles         516942542                       # Number of cycles rename is running
system.switch_cpus.rename.UnblockCycles     155423098                       # Number of cycles rename is unblocking
system.switch_cpus.rename.RenamedInsts     3878428658                       # Number of instructions processed by rename
system.switch_cpus.rename.ROBFullEvents       8035745                       # Number of times rename has blocked due to ROB full
system.switch_cpus.rename.IQFullEvents      108299013                       # Number of times rename has blocked due to IQ full
system.switch_cpus.rename.LSQFullEvents      39556329                       # Number of times rename has blocked due to LSQ full
system.switch_cpus.rename.RenamedOperands   3504115300                       # Number of destination operands rename has renamed
system.switch_cpus.rename.RenameLookups    5812757042                       # Number of register rename lookups that rename has made
system.switch_cpus.rename.int_rename_lookups    294548405                       # Number of integer rename lookups
system.switch_cpus.rename.fp_rename_lookups   5518208637                       # Number of floating rename lookups
system.switch_cpus.rename.CommittedMaps    1791849646                       # Number of HB maps that are committed
system.switch_cpus.rename.UndoneMaps       1712265573                       # Number of HB maps that are undone due to squashing
system.switch_cpus.rename.serializingInsts            0                       # count of serializing insts renamed
system.switch_cpus.rename.tempSerializingInsts            0                       # count of temporary serializing insts renamed
system.switch_cpus.rename.skidInsts         345084248                       # count of insts added to the skid buffer
system.switch_cpus.memDep0.insertedLoads    995806319                       # Number of loads inserted to the mem dependence unit.
system.switch_cpus.memDep0.insertedStores    258780676                       # Number of stores inserted to the mem dependence unit.
system.switch_cpus.memDep0.conflictingLoads     57280606                       # Number of conflicting loads.
system.switch_cpus.memDep0.conflictingStores     11438972                       # Number of conflicting stores.
system.switch_cpus.iq.iqInstsAdded         2894395611                       # Number of instructions added to the IQ (excludes non-spec)
system.switch_cpus.iq.iqInstsIssued        2594377290                       # Number of instructions issued
system.switch_cpus.iq.iqSquashedInstsIssued    116635376                       # Number of squashed instructions issued
system.switch_cpus.iq.iqSquashedInstsExamined    894383583                       # Number of squashed instructions iterated over during squash; mainly for profiling
system.switch_cpus.iq.iqSquashedOperandsExamined    928160005                       # Number of squashed operands that are examined and possibly removed from graph
system.switch_cpus.iq.issued_per_cycle::samples   3324165670                       # Number of insts issued each cycle
system.switch_cpus.iq.issued_per_cycle::mean     0.780460                       # Number of insts issued each cycle
system.switch_cpus.iq.issued_per_cycle::stdev     1.475098                       # Number of insts issued each cycle
system.switch_cpus.iq.issued_per_cycle::underflows            0      0.00%      0.00% # Number of insts issued each cycle
system.switch_cpus.iq.issued_per_cycle::0   2418765337     72.76%     72.76% # Number of insts issued each cycle
system.switch_cpus.iq.issued_per_cycle::1    176294955      5.30%     78.07% # Number of insts issued each cycle
system.switch_cpus.iq.issued_per_cycle::2    247709152      7.45%     85.52% # Number of insts issued each cycle
system.switch_cpus.iq.issued_per_cycle::3    149510244      4.50%     90.02% # Number of insts issued each cycle
system.switch_cpus.iq.issued_per_cycle::4    230289334      6.93%     96.94% # Number of insts issued each cycle
system.switch_cpus.iq.issued_per_cycle::5     68030816      2.05%     98.99% # Number of insts issued each cycle
system.switch_cpus.iq.issued_per_cycle::6     23569399      0.71%     99.70% # Number of insts issued each cycle
system.switch_cpus.iq.issued_per_cycle::7      8565975      0.26%     99.96% # Number of insts issued each cycle
system.switch_cpus.iq.issued_per_cycle::8      1430458      0.04%    100.00% # Number of insts issued each cycle
system.switch_cpus.iq.issued_per_cycle::overflows            0      0.00%    100.00% # Number of insts issued each cycle
system.switch_cpus.iq.issued_per_cycle::min_value            0                       # Number of insts issued each cycle
system.switch_cpus.iq.issued_per_cycle::max_value            8                       # Number of insts issued each cycle
system.switch_cpus.iq.issued_per_cycle::total   3324165670                       # Number of insts issued each cycle
system.switch_cpus.iq.fu_full::No_OpClass            0      0.00%      0.00% # attempts to use FU when none available
system.switch_cpus.iq.fu_full::IntAlu          199262      0.08%      0.08% # attempts to use FU when none available
system.switch_cpus.iq.fu_full::IntMult              0      0.00%      0.08% # attempts to use FU when none available
system.switch_cpus.iq.fu_full::IntDiv               0      0.00%      0.08% # attempts to use FU when none available
system.switch_cpus.iq.fu_full::FloatAdd        285997      0.11%      0.19% # attempts to use FU when none available
system.switch_cpus.iq.fu_full::FloatCmp             0      0.00%      0.19% # attempts to use FU when none available
system.switch_cpus.iq.fu_full::FloatCvt             0      0.00%      0.19% # attempts to use FU when none available
system.switch_cpus.iq.fu_full::FloatMult     40511657     15.74%     15.93% # attempts to use FU when none available
system.switch_cpus.iq.fu_full::FloatDiv      68642986     26.67%     42.60% # attempts to use FU when none available
system.switch_cpus.iq.fu_full::FloatSqrt            0      0.00%     42.60% # attempts to use FU when none available
system.switch_cpus.iq.fu_full::SimdAdd              0      0.00%     42.60% # attempts to use FU when none available
system.switch_cpus.iq.fu_full::SimdAddAcc            0      0.00%     42.60% # attempts to use FU when none available
system.switch_cpus.iq.fu_full::SimdAlu              0      0.00%     42.60% # attempts to use FU when none available
system.switch_cpus.iq.fu_full::SimdCmp              0      0.00%     42.60% # attempts to use FU when none available
system.switch_cpus.iq.fu_full::SimdCvt              0      0.00%     42.60% # attempts to use FU when none available
system.switch_cpus.iq.fu_full::SimdMisc             0      0.00%     42.60% # attempts to use FU when none available
system.switch_cpus.iq.fu_full::SimdMult             0      0.00%     42.60% # attempts to use FU when none available
system.switch_cpus.iq.fu_full::SimdMultAcc            0      0.00%     42.60% # attempts to use FU when none available
system.switch_cpus.iq.fu_full::SimdShift            0      0.00%     42.60% # attempts to use FU when none available
system.switch_cpus.iq.fu_full::SimdShiftAcc            0      0.00%     42.60% # attempts to use FU when none available
system.switch_cpus.iq.fu_full::SimdSqrt             0      0.00%     42.60% # attempts to use FU when none available
system.switch_cpus.iq.fu_full::SimdFloatAdd            0      0.00%     42.60% # attempts to use FU when none available
system.switch_cpus.iq.fu_full::SimdFloatAlu            0      0.00%     42.60% # attempts to use FU when none available
system.switch_cpus.iq.fu_full::SimdFloatCmp            0      0.00%     42.60% # attempts to use FU when none available
system.switch_cpus.iq.fu_full::SimdFloatCvt            0      0.00%     42.60% # attempts to use FU when none available
system.switch_cpus.iq.fu_full::SimdFloatDiv            0      0.00%     42.60% # attempts to use FU when none available
system.switch_cpus.iq.fu_full::SimdFloatMisc            0      0.00%     42.60% # attempts to use FU when none available
system.switch_cpus.iq.fu_full::SimdFloatMult            0      0.00%     42.60% # attempts to use FU when none available
system.switch_cpus.iq.fu_full::SimdFloatMultAcc            0      0.00%     42.60% # attempts to use FU when none available
system.switch_cpus.iq.fu_full::SimdFloatSqrt            0      0.00%     42.60% # attempts to use FU when none available
system.switch_cpus.iq.fu_full::MemRead      118609500     46.09%     88.69% # attempts to use FU when none available
system.switch_cpus.iq.fu_full::MemWrite      29119547     11.31%    100.00% # attempts to use FU when none available
system.switch_cpus.iq.fu_full::IprAccess            0      0.00%    100.00% # attempts to use FU when none available
system.switch_cpus.iq.fu_full::InstPrefetch            0      0.00%    100.00% # attempts to use FU when none available
system.switch_cpus.iq.FU_type_0::No_OpClass            0      0.00%      0.00% # Type of FU issued
system.switch_cpus.iq.FU_type_0::IntAlu     216049550      8.33%      8.33% # Type of FU issued
system.switch_cpus.iq.FU_type_0::IntMult            0      0.00%      8.33% # Type of FU issued
system.switch_cpus.iq.FU_type_0::IntDiv             0      0.00%      8.33% # Type of FU issued
system.switch_cpus.iq.FU_type_0::FloatAdd    813866870     31.37%     39.70% # Type of FU issued
system.switch_cpus.iq.FU_type_0::FloatCmp            0      0.00%     39.70% # Type of FU issued
system.switch_cpus.iq.FU_type_0::FloatCvt            0      0.00%     39.70% # Type of FU issued
system.switch_cpus.iq.FU_type_0::FloatMult    452283993     17.43%     57.13% # Type of FU issued
system.switch_cpus.iq.FU_type_0::FloatDiv     17160682      0.66%     57.79% # Type of FU issued
system.switch_cpus.iq.FU_type_0::FloatSqrt            0      0.00%     57.79% # Type of FU issued
system.switch_cpus.iq.FU_type_0::SimdAdd            0      0.00%     57.79% # Type of FU issued
system.switch_cpus.iq.FU_type_0::SimdAddAcc            0      0.00%     57.79% # Type of FU issued
system.switch_cpus.iq.FU_type_0::SimdAlu            0      0.00%     57.79% # Type of FU issued
system.switch_cpus.iq.FU_type_0::SimdCmp            0      0.00%     57.79% # Type of FU issued
system.switch_cpus.iq.FU_type_0::SimdCvt            0      0.00%     57.79% # Type of FU issued
system.switch_cpus.iq.FU_type_0::SimdMisc            0      0.00%     57.79% # Type of FU issued
system.switch_cpus.iq.FU_type_0::SimdMult            0      0.00%     57.79% # Type of FU issued
system.switch_cpus.iq.FU_type_0::SimdMultAcc            0      0.00%     57.79% # Type of FU issued
system.switch_cpus.iq.FU_type_0::SimdShift            0      0.00%     57.79% # Type of FU issued
system.switch_cpus.iq.FU_type_0::SimdShiftAcc            0      0.00%     57.79% # Type of FU issued
system.switch_cpus.iq.FU_type_0::SimdSqrt            0      0.00%     57.79% # Type of FU issued
system.switch_cpus.iq.FU_type_0::SimdFloatAdd            0      0.00%     57.79% # Type of FU issued
system.switch_cpus.iq.FU_type_0::SimdFloatAlu            0      0.00%     57.79% # Type of FU issued
system.switch_cpus.iq.FU_type_0::SimdFloatCmp            0      0.00%     57.79% # Type of FU issued
system.switch_cpus.iq.FU_type_0::SimdFloatCvt            0      0.00%     57.79% # Type of FU issued
system.switch_cpus.iq.FU_type_0::SimdFloatDiv            0      0.00%     57.79% # Type of FU issued
system.switch_cpus.iq.FU_type_0::SimdFloatMisc            0      0.00%     57.79% # Type of FU issued
system.switch_cpus.iq.FU_type_0::SimdFloatMult            0      0.00%     57.79% # Type of FU issued
system.switch_cpus.iq.FU_type_0::SimdFloatMultAcc            0      0.00%     57.79% # Type of FU issued
system.switch_cpus.iq.FU_type_0::SimdFloatSqrt            0      0.00%     57.79% # Type of FU issued
system.switch_cpus.iq.FU_type_0::MemRead    880152278     33.93%     91.72% # Type of FU issued
system.switch_cpus.iq.FU_type_0::MemWrite    214863917      8.28%    100.00% # Type of FU issued
system.switch_cpus.iq.FU_type_0::IprAccess            0      0.00%    100.00% # Type of FU issued
system.switch_cpus.iq.FU_type_0::InstPrefetch            0      0.00%    100.00% # Type of FU issued
system.switch_cpus.iq.FU_type_0::total     2594377290                       # Type of FU issued
system.switch_cpus.iq.rate                   0.737417                       # Inst issue rate
system.switch_cpus.iq.fu_busy_cnt           257368949                       # FU busy when requested
system.switch_cpus.iq.fu_busy_rate           0.099203                       # FU busy rate (busy events/executed inst)
system.switch_cpus.iq.int_inst_queue_reads   3799633473                       # Number of integer instruction queue reads
system.switch_cpus.iq.int_inst_queue_writes    382556497                       # Number of integer instruction queue writes
system.switch_cpus.iq.int_inst_queue_wakeup_accesses    222349452                       # Number of integer instruction queue wakeup accesses
system.switch_cpus.iq.fp_inst_queue_reads   5087291094                       # Number of floating instruction queue reads
system.switch_cpus.iq.fp_inst_queue_writes   3406235648                       # Number of floating instruction queue writes
system.switch_cpus.iq.fp_inst_queue_wakeup_accesses   1863548537                       # Number of floating instruction queue wakeup accesses
system.switch_cpus.iq.int_alu_accesses      237142332                       # Number of integer alu accesses
system.switch_cpus.iq.fp_alu_accesses      2614603907                       # Number of floating point alu accesses
system.switch_cpus.iew.lsq.thread0.forwLoads     51656432                       # Number of loads that had data forwarded from stores
system.switch_cpus.iew.lsq.thread0.invAddrLoads            0                       # Number of loads ignored due to an invalid address
system.switch_cpus.iew.lsq.thread0.squashedLoads    625494591                       # Number of loads squashed
system.switch_cpus.iew.lsq.thread0.ignoredResponses            5                       # Number of memory responses ignored because the instruction is squashed
system.switch_cpus.iew.lsq.thread0.memOrderViolation        12951                       # Number of memory ordering violations
system.switch_cpus.iew.lsq.thread0.squashedStores     80644718                       # Number of stores squashed
system.switch_cpus.iew.lsq.thread0.invAddrSwpfs            0                       # Number of software prefetches ignored due to an invalid address
system.switch_cpus.iew.lsq.thread0.blockedLoads            0                       # Number of blocked loads due to partial load-store forwarding
system.switch_cpus.iew.lsq.thread0.rescheduledLoads            0                       # Number of loads that were rescheduled
system.switch_cpus.iew.lsq.thread0.cacheBlocked    380496318                       # Number of times an access to memory failed due to the cache being blocked
system.switch_cpus.iew.iewIdleCycles                0                       # Number of cycles IEW is idle
system.switch_cpus.iew.iewSquashCycles      151460508                       # Number of cycles IEW is squashing
system.switch_cpus.iew.iewBlockCycles      1159703312                       # Number of cycles IEW is blocking
system.switch_cpus.iew.iewUnblockCycles      36199828                       # Number of cycles IEW is unblocking
system.switch_cpus.iew.iewDispatchedInsts   2894395694                       # Number of instructions dispatched to IQ
system.switch_cpus.iew.iewDispSquashedInsts    325830375                       # Number of squashed instructions skipped by dispatch
system.switch_cpus.iew.iewDispLoadInsts     995806319                       # Number of dispatched load instructions
system.switch_cpus.iew.iewDispStoreInsts    258780676                       # Number of dispatched store instructions
system.switch_cpus.iew.iewDispNonSpecInsts            0                       # Number of dispatched non-speculative instructions
system.switch_cpus.iew.iewIQFullEvents       31943623                       # Number of times the IQ has become full, causing a stall
system.switch_cpus.iew.iewLSQFullEvents        226504                       # Number of times the LSQ has become full, causing a stall
system.switch_cpus.iew.memOrderViolationEvents        12951                       # Number of memory order violations
system.switch_cpus.iew.predictedTakenIncorrect         8712                       # Number of branches that were predicted taken incorrectly
system.switch_cpus.iew.predictedNotTakenIncorrect        75450                       # Number of branches that were predicted not taken incorrectly
system.switch_cpus.iew.branchMispredicts        84162                       # Number of branch mispredicts detected at execute
system.switch_cpus.iew.iewExecutedInsts    2449921036                       # Number of executed instructions
system.switch_cpus.iew.iewExecLoadInsts     739507548                       # Number of load instructions executed
system.switch_cpus.iew.iewExecSquashedInsts    144456246                       # Number of squashed instructions skipped in execute
system.switch_cpus.iew.exec_swp                     0                       # number of swp insts executed
system.switch_cpus.iew.exec_nop                    83                       # number of nop insts executed
system.switch_cpus.iew.exec_refs            954223369                       # number of memory reference insts executed
system.switch_cpus.iew.exec_branches         30796781                       # Number of branches executed
system.switch_cpus.iew.exec_stores          214715821                       # Number of stores executed
system.switch_cpus.iew.exec_rate             0.696357                       # Inst execution rate
system.switch_cpus.iew.wb_sent             2087646808                       # cumulative count of insts sent to commit
system.switch_cpus.iew.wb_count            2085897989                       # cumulative count of insts written-back
system.switch_cpus.iew.wb_producers        1618020454                       # num instructions producing a value
system.switch_cpus.iew.wb_consumers        2267855705                       # num instructions consuming a value
system.switch_cpus.iew.wb_penalized                 0                       # number of instrctions required to write to 'other' IQ
system.switch_cpus.iew.wb_rate               0.592889                       # insts written-back per cycle
system.switch_cpus.iew.wb_fanout             0.713458                       # average fanout of values written-back
system.switch_cpus.iew.wb_penalized_rate            0                       # fraction of instructions written-back that wrote to 'other' IQ
system.switch_cpus.commit.commitSquashedInsts    895250135                       # The number of squashed insts skipped by commit
system.switch_cpus.commit.branchMispredicts        84159                       # The number of times a branch was mispredicted
system.switch_cpus.commit.committed_per_cycle::samples   3172705162                       # Number of insts commited each cycle
system.switch_cpus.commit.committed_per_cycle::mean     0.630377                       # Number of insts commited each cycle
system.switch_cpus.commit.committed_per_cycle::stdev     1.720340                       # Number of insts commited each cycle
system.switch_cpus.commit.committed_per_cycle::underflows            0      0.00%      0.00% # Number of insts commited each cycle
system.switch_cpus.commit.committed_per_cycle::0   2601057658     81.98%     81.98% # Number of insts commited each cycle
system.switch_cpus.commit.committed_per_cycle::1    204508751      6.45%     88.43% # Number of insts commited each cycle
system.switch_cpus.commit.committed_per_cycle::2     54479889      1.72%     90.15% # Number of insts commited each cycle
system.switch_cpus.commit.committed_per_cycle::3     52663220      1.66%     91.81% # Number of insts commited each cycle
system.switch_cpus.commit.committed_per_cycle::4     90570500      2.85%     94.66% # Number of insts commited each cycle
system.switch_cpus.commit.committed_per_cycle::5     44121923      1.39%     96.05% # Number of insts commited each cycle
system.switch_cpus.commit.committed_per_cycle::6     17122296      0.54%     96.59% # Number of insts commited each cycle
system.switch_cpus.commit.committed_per_cycle::7     22530944      0.71%     97.30% # Number of insts commited each cycle
system.switch_cpus.commit.committed_per_cycle::8     85649981      2.70%    100.00% # Number of insts commited each cycle
system.switch_cpus.commit.committed_per_cycle::overflows            0      0.00%    100.00% # Number of insts commited each cycle
system.switch_cpus.commit.committed_per_cycle::min_value            0                       # Number of insts commited each cycle
system.switch_cpus.commit.committed_per_cycle::max_value            8                       # Number of insts commited each cycle
system.switch_cpus.commit.committed_per_cycle::total   3172705162                       # Number of insts commited each cycle
system.switch_cpus.commit.committedInsts   2000000036                       # Number of instructions committed
system.switch_cpus.commit.committedOps     2000000036                       # Number of ops (including micro ops) committed
system.switch_cpus.commit.swp_count                 0                       # Number of s/w prefetches committed
system.switch_cpus.commit.refs              548447673                       # Number of memory references committed
system.switch_cpus.commit.loads             370311718                       # Number of loads committed
system.switch_cpus.commit.membars                   0                       # Number of memory barriers committed
system.switch_cpus.commit.branches           30014407                       # Number of branches committed
system.switch_cpus.commit.fp_insts         1785581787                       # Number of committed floating point instructions.
system.switch_cpus.commit.int_insts         745004108                       # Number of committed integer instructions.
system.switch_cpus.commit.function_calls           10                       # Number of function calls committed.
system.switch_cpus.commit.bw_lim_events      85649981                       # number cycles where commit BW limit reached
system.switch_cpus.commit.bw_limited                0                       # number of insts not committed due to BW limits
system.switch_cpus.rob.rob_reads           5975652706                       # The number of ROB reads
system.switch_cpus.rob.rob_writes          5941960927                       # The number of ROB writes
system.switch_cpus.timesIdled                 2012544                       # Number of times that the entire CPU went into an idle state and unscheduled itself
system.switch_cpus.idleCycles               194029289                       # Total number of cycles that the CPU has spent unscheduled due to idling
system.switch_cpus.committedInsts          2000000006                       # Number of Instructions Simulated
system.switch_cpus.committedOps            2000000006                       # Number of Ops (including micro ops) Simulated
system.switch_cpus.committedInsts_total    2000000006                       # Number of Instructions Simulated
system.switch_cpus.cpi                       1.759097                       # CPI: Cycles Per Instruction
system.switch_cpus.cpi_total                 1.759097                       # CPI: Total CPI of All Threads
system.switch_cpus.ipc                       0.568473                       # IPC: Instructions Per Cycle
system.switch_cpus.ipc_total                 0.568473                       # IPC: Total IPC of All Threads
system.switch_cpus.int_regfile_reads       1165054868                       # number of integer regfile reads
system.switch_cpus.int_regfile_writes       191824074                       # number of integer regfile writes
system.switch_cpus.fp_regfile_reads        2774133715                       # number of floating regfile reads
system.switch_cpus.fp_regfile_writes       1649269938                       # number of floating regfile writes
system.l2.tags.numFaultyBlocks_VDD1              1162                       # number of faulty blocks in the cache at VDD1 (lowest)
system.l2.tags.numFaultyBlocks_VDD2              1162                       # number of faulty blocks in the cache at VDD2 (mid)
system.l2.tags.numFaultyBlocks_VDD3                 0                       # number of faulty blocks in the cache at VDD3 (highest)
system.l2.tags.blockFaultRate_VDD1           0.008865                       # Proportion of faulty blocks in the cache at VDD1
system.l2.tags.blockFaultRate_VDD2           0.008865                       # Proportion of faulty blocks in the cache at VDD2
system.l2.tags.blockFaultRate_VDD3                  0                       # Proportion of faulty blocks in the cache at VDD3
system.l2.tags.cycles_VDD1                          0                       # Total number of cycles spent on VDD1
system.l2.tags.cycles_VDD2                 4518427569                       # Total number of cycles spent on VDD2
system.l2.tags.cycles_VDD3                          0                       # Total number of cycles spent on VDD3
system.l2.tags.accessEnergy_VDD1                    0                       # Total dynamic energy dissipated at VDD1 in nJ
system.l2.tags.accessEnergy_VDD2         37348708.294781                       # Total dynamic energy dissipated at VDD2 in nJ
system.l2.tags.accessEnergy_VDD3                    0                       # Total dynamic energy dissipated at VDD3 in nJ
system.l2.tags.accessEnergy_tot          37348708.294781                       # Total dynamic energy dissipated in nJ
system.l2.tags.transitionsTo_VDD1                   0                       # Total number of transitions to VDD1
system.l2.tags.transitionsTo_VDD2                   0                       # Total number of transitions to VDD2
system.l2.tags.transitionsTo_VDD3                   0                       # Total number of transitions to VDD3
system.l2.tags.avgConsecutiveCycles_VDD1          nan                       # Average number of consecutive cycles spent at VDD1
system.l2.tags.avgConsecutiveCycles_VDD2          inf                       # Average number of consecutive cycles spent at VDD2
system.l2.tags.avgConsecutiveCycles_VDD3          nan                       # Average number of consecutive cycles spent at VDD3
system.l2.tags.proportionExecTime_VDD1              0                       # Proportion of total execution time that was spent at VDD1 for this cache
system.l2.tags.proportionExecTime_VDD2              1                       # Proportion of total execution time that was spent at VDD2 for this cache
system.l2.tags.proportionExecTime_VDD3              0                       # Proportion of total execution time that was spent at VDD3 for this cache
system.l2.tags.staticPower_avg            8751.172680                       # Average static power of this cache over the entire execution
system.l2.tags.numUnchangedFaultyTo_VDD1            0                       # Total number of unchanged (faulty) blocks during DPCS transition to VDD1
system.l2.tags.numUnchangedFaultyTo_VDD2            0                       # Total number of unchanged (faulty) blocks during DPCS transition to VDD2
system.l2.tags.numUnchangedFaultyTo_VDD3            0                       # Total number of unchanged (faulty) blocks during DPCS transition to VDD3
system.l2.tags.numFaultyWriteBacksTo_VDD1            0                       # Total number of faulty writebacks during DPCS transition to VDD1
system.l2.tags.numFaultyWriteBacksTo_VDD2            0                       # Total number of faulty writebacks during DPCS transition to VDD2
system.l2.tags.numFaultyWriteBacksTo_VDD3            0                       # Total number of faulty writebacks during DPCS transition to VDD3
system.l2.tags.numInvalidateOnlyTo_VDD1             0                       # Total number of blocks only invalidated during DPCS transition to VDD1
system.l2.tags.numInvalidateOnlyTo_VDD2             0                       # Total number of blocks only invalidated during DPCS transition to VDD2
system.l2.tags.numInvalidateOnlyTo_VDD3             0                       # Total number of blocks only invalidated during DPCS transition to VDD3
system.l2.tags.numMadeAvailableTo_VDD1              0                       # Total number of blocks made available (faulty to non-faulty) during DPCS transition to VDD1
system.l2.tags.numMadeAvailableTo_VDD2              0                       # Total number of blocks made available (faulty to non-faulty) during DPCS transition to VDD2
system.l2.tags.numMadeAvailableTo_VDD3              0                       # Total number of blocks made available (faulty to non-faulty) during DPCS transition to VDD3
system.l2.tags.numUnchangedNotFaultyTo_VDD1            0                       # Total number of blocks unchanged (not faulty) during DPCS transition to VDD1
system.l2.tags.numUnchangedNotFaultyTo_VDD2            0                       # Total number of blocks unchanged (not faulty) during DPCS transition to VDD2
system.l2.tags.numUnchangedNotFaultyTo_VDD3            0                       # Total number of blocks unchanged (not faulty) during DPCS transition to VDD3
system.l2.tags.faultyWriteBackRateTo_VDD1          nan                       # Average number of writebacks caused by faulty blocks when changing to VDD1
system.l2.tags.faultyWriteBackRateTo_VDD2          nan                       # Average number of writebacks caused by faulty blocks when changing to VDD2
system.l2.tags.faultyWriteBackRateTo_VDD3          nan                       # Average number of writebacks caused by faulty blocks when changing to VDD3
system.l2.tags.replacements                  32008019                       # number of replacements
system.l2.tags.tagsinuse                 127516.575535                       # Cycle average of tags in use
system.l2.tags.total_refs                    31626668                       # Total number of references to valid blocks.
system.l2.tags.sampled_refs                  32135503                       # Sample count of references to valid blocks.
system.l2.tags.avg_refs                      0.984166                       # Average number of references to valid blocks.
system.l2.tags.warmup_cycle                         0                       # Cycle when the warmup percentage was hit.
system.l2.tags.occ_blocks::writebacks    88176.376006                       # Average occupied blocks per requestor
system.l2.tags.occ_blocks::switch_cpus.inst     0.006185                       # Average occupied blocks per requestor
system.l2.tags.occ_blocks::switch_cpus.data 39296.070099                       # Average occupied blocks per requestor
system.l2.tags.occ_blocks::cpu.data         44.123245                       # Average occupied blocks per requestor
system.l2.tags.occ_percent::writebacks       0.672732                       # Average percentage of cache occupancy
system.l2.tags.occ_percent::switch_cpus.inst     0.000000                       # Average percentage of cache occupancy
system.l2.tags.occ_percent::switch_cpus.data     0.299805                       # Average percentage of cache occupancy
system.l2.tags.occ_percent::cpu.data         0.000337                       # Average percentage of cache occupancy
system.l2.tags.occ_percent::total            0.972874                       # Average percentage of cache occupancy
system.l2.ReadReq_hits::switch_cpus.data           15                       # number of ReadReq hits
system.l2.ReadReq_hits::total                      15                       # number of ReadReq hits
system.l2.Writeback_hits::writebacks         47639167                       # number of Writeback hits
system.l2.Writeback_hits::total              47639167                       # number of Writeback hits
system.l2.ReadExReq_hits::switch_cpus.data     31509695                       # number of ReadExReq hits
system.l2.ReadExReq_hits::total              31509695                       # number of ReadExReq hits
system.l2.demand_hits::switch_cpus.data      31509710                       # number of demand (read+write) hits
system.l2.demand_hits::total                 31509710                       # number of demand (read+write) hits
system.l2.overall_hits::switch_cpus.data     31509710                       # number of overall hits
system.l2.overall_hits::total                31509710                       # number of overall hits
system.l2.ReadReq_misses::switch_cpus.inst            2                       # number of ReadReq misses
system.l2.ReadReq_misses::switch_cpus.data     15878514                       # number of ReadReq misses
system.l2.ReadReq_misses::total              15878516                       # number of ReadReq misses
system.l2.ReadExReq_misses::switch_cpus.data     16129477                       # number of ReadExReq misses
system.l2.ReadExReq_misses::total            16129477                       # number of ReadExReq misses
system.l2.demand_misses::switch_cpus.inst            2                       # number of demand (read+write) misses
system.l2.demand_misses::switch_cpus.data     32007991                       # number of demand (read+write) misses
system.l2.demand_misses::total               32007993                       # number of demand (read+write) misses
system.l2.overall_misses::switch_cpus.inst            2                       # number of overall misses
system.l2.overall_misses::switch_cpus.data     32007991                       # number of overall misses
system.l2.overall_misses::total              32007993                       # number of overall misses
system.l2.ReadReq_miss_latency::switch_cpus.inst       152543                       # number of ReadReq miss cycles
system.l2.ReadReq_miss_latency::switch_cpus.data 1138130406161                       # number of ReadReq miss cycles
system.l2.ReadReq_miss_latency::total    1138130558704                       # number of ReadReq miss cycles
system.l2.ReadExReq_miss_latency::switch_cpus.data 1065743157870                       # number of ReadExReq miss cycles
system.l2.ReadExReq_miss_latency::total  1065743157870                       # number of ReadExReq miss cycles
system.l2.demand_miss_latency::switch_cpus.inst       152543                       # number of demand (read+write) miss cycles
system.l2.demand_miss_latency::switch_cpus.data 2203873564031                       # number of demand (read+write) miss cycles
system.l2.demand_miss_latency::total     2203873716574                       # number of demand (read+write) miss cycles
system.l2.overall_miss_latency::switch_cpus.inst       152543                       # number of overall miss cycles
system.l2.overall_miss_latency::switch_cpus.data 2203873564031                       # number of overall miss cycles
system.l2.overall_miss_latency::total    2203873716574                       # number of overall miss cycles
system.l2.ReadReq_accesses::switch_cpus.inst            2                       # number of ReadReq accesses(hits+misses)
[...]
system.cpu.icache.overall_mshr_miss_rate::total     0.000000                       # mshr miss rate for overall accesses
system.cpu.icache.ReadReq_avg_mshr_miss_latency::switch_cpus.inst        77437                       # average ReadReq mshr miss latency
system.cpu.icache.ReadReq_avg_mshr_miss_latency::total        77437                       # average ReadReq mshr miss latency
system.cpu.icache.demand_avg_mshr_miss_latency::switch_cpus.inst        77437                       # average overall mshr miss latency
system.cpu.icache.demand_avg_mshr_miss_latency::total        77437                       # average overall mshr miss latency
system.cpu.icache.overall_avg_mshr_miss_latency::switch_cpus.inst        77437                       # average overall mshr miss latency
system.cpu.icache.overall_avg_mshr_miss_latency::total        77437                       # average overall mshr miss latency
system.cpu.icache.no_allocate_misses                0                       # Number of misses that were no-allocate
system.cpu.dcache.tags.numFaultyBlocks_VDD1         1221                       # number of faulty blocks in the cache at VDD1 (lowest)
system.cpu.dcache.tags.numFaultyBlocks_VDD2           30                       # number of faulty blocks in the cache at VDD2 (mid)
system.cpu.dcache.tags.numFaultyBlocks_VDD3            0                       # number of faulty blocks in the cache at VDD3 (highest)
system.cpu.dcache.tags.blockFaultRate_VDD1     0.298096                       # Proportion of faulty blocks in the cache at VDD1
system.cpu.dcache.tags.blockFaultRate_VDD2     0.007324                       # Proportion of faulty blocks in the cache at VDD2
system.cpu.dcache.tags.blockFaultRate_VDD3            0                       # Proportion of faulty blocks in the cache at VDD3
system.cpu.dcache.tags.cycles_VDD1                  0                       # Total number of cycles spent on VDD1
system.cpu.dcache.tags.cycles_VDD2         4518427642                       # Total number of cycles spent on VDD2
system.cpu.dcache.tags.cycles_VDD3                  0                       # Total number of cycles spent on VDD3
system.cpu.dcache.tags.accessEnergy_VDD1            0                       # Total dynamic energy dissipated at VDD1 in nJ
system.cpu.dcache.tags.accessEnergy_VDD2 27440870.697632                       # Total dynamic energy dissipated at VDD2 in nJ
system.cpu.dcache.tags.accessEnergy_VDD3            0                       # Total dynamic energy dissipated at VDD3 in nJ
system.cpu.dcache.tags.accessEnergy_tot  27440870.697632                       # Total dynamic energy dissipated in nJ
system.cpu.dcache.tags.transitionsTo_VDD1            0                       # Total number of transitions to VDD1
system.cpu.dcache.tags.transitionsTo_VDD2            0                       # Total number of transitions to VDD2
system.cpu.dcache.tags.transitionsTo_VDD3            0                       # Total number of transitions to VDD3
system.cpu.dcache.tags.avgConsecutiveCycles_VDD1          nan                       # Average number of consecutive cycles spent at VDD1
system.cpu.dcache.tags.avgConsecutiveCycles_VDD2          inf                       # Average number of consecutive cycles spent at VDD2
system.cpu.dcache.tags.avgConsecutiveCycles_VDD3          nan                       # Average number of consecutive cycles spent at VDD3
system.cpu.dcache.tags.proportionExecTime_VDD1            0                       # Proportion of total execution time that was spent at VDD1 for this cache
system.cpu.dcache.tags.proportionExecTime_VDD2            1                       # Proportion of total execution time that was spent at VDD2 for this cache
system.cpu.dcache.tags.proportionExecTime_VDD3            0                       # Proportion of total execution time that was spent at VDD3 for this cache
system.cpu.dcache.tags.staticPower_avg     333.713930                       # Average static power of this cache over the entire execution
system.cpu.dcache.tags.numUnchangedFaultyTo_VDD1            0                       # Total number of unchanged (faulty) blocks during DPCS transition to VDD1
system.cpu.dcache.tags.numUnchangedFaultyTo_VDD2            0                       # Total number of unchanged (faulty) blocks during DPCS transition to VDD2
system.cpu.dcache.tags.numUnchangedFaultyTo_VDD3            0                       # Total number of unchanged (faulty) blocks during DPCS transition to VDD3
system.cpu.dcache.tags.numFaultyWriteBacksTo_VDD1            0                       # Total number of faulty writebacks during DPCS transition to VDD1
system.cpu.dcache.tags.numFaultyWriteBacksTo_VDD2            0                       # Total number of faulty writebacks during DPCS transition to VDD2
system.cpu.dcache.tags.numFaultyWriteBacksTo_VDD3            0                       # Total number of faulty writebacks during DPCS transition to VDD3
system.cpu.dcache.tags.numInvalidateOnlyTo_VDD1            0                       # Total number of blocks only invalidated during DPCS transition to VDD1
system.cpu.dcache.tags.numInvalidateOnlyTo_VDD2            0                       # Total number of blocks only invalidated during DPCS transition to VDD2
system.cpu.dcache.tags.numInvalidateOnlyTo_VDD3            0                       # Total number of blocks only invalidated during DPCS transition to VDD3
system.cpu.dcache.tags.numMadeAvailableTo_VDD1            0                       # Total number of blocks made available (faulty to non-faulty) during DPCS transition to VDD1
system.cpu.dcache.tags.numMadeAvailableTo_VDD2            0                       # Total number of blocks made available (faulty to non-faulty) during DPCS transition to VDD2
system.cpu.dcache.tags.numMadeAvailableTo_VDD3            0                       # Total number of blocks made available (faulty to non-faulty) during DPCS transition to VDD3
system.cpu.dcache.tags.numUnchangedNotFaultyTo_VDD1            0                       # Total number of blocks unchanged (not faulty) during DPCS transition to VDD1
system.cpu.dcache.tags.numUnchangedNotFaultyTo_VDD2            0                       # Total number of blocks unchanged (not faulty) during DPCS transition to VDD2
system.cpu.dcache.tags.numUnchangedNotFaultyTo_VDD3            0                       # Total number of blocks unchanged (not faulty) during DPCS transition to VDD3
system.cpu.dcache.tags.faultyWriteBackRateTo_VDD1          nan                       # Average number of writebacks caused by faulty blocks when changing to VDD1
system.cpu.dcache.tags.faultyWriteBackRateTo_VDD2          nan                       # Average number of writebacks caused by faulty blocks when changing to VDD2
system.cpu.dcache.tags.faultyWriteBackRateTo_VDD3          nan                       # Average number of writebacks caused by faulty blocks when changing to VDD3
system.cpu.dcache.tags.replacements          63517701                       # number of replacements
system.cpu.dcache.tags.tagsinuse                 4066                       # Cycle average of tags in use
system.cpu.dcache.tags.total_refs           387151548                       # Total number of references to valid blocks.
system.cpu.dcache.tags.sampled_refs          63521767                       # Sample count of references to valid blocks.
system.cpu.dcache.tags.avg_refs              6.094786                       # Average number of references to valid blocks.
system.cpu.dcache.tags.warmup_cycle                 0                       # Cycle when the warmup percentage was hit.
system.cpu.dcache.tags.occ_blocks::switch_cpus.data  4065.228435                       # Average occupied blocks per requestor
system.cpu.dcache.tags.occ_blocks::cpu.data     0.771565                       # Average occupied blocks per requestor
system.cpu.dcache.tags.occ_percent::switch_cpus.data     0.992487                       # Average percentage of cache occupancy
system.cpu.dcache.tags.occ_percent::cpu.data     0.000188                       # Average percentage of cache occupancy
system.cpu.dcache.tags.occ_percent::total     0.992676                       # Average percentage of cache occupancy
system.cpu.dcache.ReadReq_hits::switch_cpus.data    250506486                       # number of ReadReq hits
system.cpu.dcache.ReadReq_hits::total       250506486                       # number of ReadReq hits
system.cpu.dcache.WriteReq_hits::switch_cpus.data    130496783                       # number of WriteReq hits
system.cpu.dcache.WriteReq_hits::total      130496783                       # number of WriteReq hits
system.cpu.dcache.demand_hits::switch_cpus.data    381003269                       # number of demand (read+write) hits
system.cpu.dcache.demand_hits::total        381003269                       # number of demand (read+write) hits
system.cpu.dcache.overall_hits::switch_cpus.data    381003269                       # number of overall hits
system.cpu.dcache.overall_hits::total       381003269                       # number of overall hits
system.cpu.dcache.ReadReq_misses::switch_cpus.data     77086835                       # number of ReadReq misses
system.cpu.dcache.ReadReq_misses::total      77086835                       # number of ReadReq misses
system.cpu.dcache.WriteReq_misses::switch_cpus.data     47639172                       # number of WriteReq misses
system.cpu.dcache.WriteReq_misses::total     47639172                       # number of WriteReq misses
system.cpu.dcache.demand_misses::switch_cpus.data    124726007                       # number of demand (read+write) misses
system.cpu.dcache.demand_misses::total      124726007                       # number of demand (read+write) misses
system.cpu.dcache.overall_misses::switch_cpus.data    124726007                       # number of overall misses
system.cpu.dcache.overall_misses::total     124726007                       # number of overall misses
system.cpu.dcache.ReadReq_miss_latency::switch_cpus.data 4326599925884                       # number of ReadReq miss cycles
system.cpu.dcache.ReadReq_miss_latency::total 4326599925884                       # number of ReadReq miss cycles
system.cpu.dcache.WriteReq_miss_latency::switch_cpus.data 1280850182152                       # number of WriteReq miss cycles
system.cpu.dcache.WriteReq_miss_latency::total 1280850182152                       # number of WriteReq miss cycles
system.cpu.dcache.demand_miss_latency::switch_cpus.data 5607450108036                       # number of demand (read+write) miss cycles
system.cpu.dcache.demand_miss_latency::total 5607450108036                       # number of demand (read+write) miss cycles
system.cpu.dcache.overall_miss_latency::switch_cpus.data 5607450108036                       # number of overall miss cycles
system.cpu.dcache.overall_miss_latency::total 5607450108036                       # number of overall miss cycles
system.cpu.dcache.ReadReq_accesses::switch_cpus.data    327593321                       # number of ReadReq accesses(hits+misses)
system.cpu.dcache.ReadReq_accesses::total    327593321                       # number of ReadReq accesses(hits+misses)
system.cpu.dcache.WriteReq_accesses::switch_cpus.data    178135955                       # number of WriteReq accesses(hits+misses)
system.cpu.dcache.WriteReq_accesses::total    178135955                       # number of WriteReq accesses(hits+misses)
system.cpu.dcache.demand_accesses::switch_cpus.data    505729276                       # number of demand (read+write) accesses
system.cpu.dcache.demand_accesses::total    505729276                       # number of demand (read+write) accesses
system.cpu.dcache.overall_accesses::switch_cpus.data    505729276                       # number of overall (read+write) accesses
system.cpu.dcache.overall_accesses::total    505729276                       # number of overall (read+write) accesses
system.cpu.dcache.ReadReq_miss_rate::switch_cpus.data     0.235313                       # miss rate for ReadReq accesses
system.cpu.dcache.ReadReq_miss_rate::total     0.235313                       # miss rate for ReadReq accesses
system.cpu.dcache.WriteReq_miss_rate::switch_cpus.data     0.267432                       # miss rate for WriteReq accesses
system.cpu.dcache.WriteReq_miss_rate::total     0.267432                       # miss rate for WriteReq accesses
system.cpu.dcache.demand_miss_rate::switch_cpus.data     0.246626                       # miss rate for demand accesses
system.cpu.dcache.demand_miss_rate::total     0.246626                       # miss rate for demand accesses
system.cpu.dcache.overall_miss_rate::switch_cpus.data     0.246626                       # miss rate for overall accesses
system.cpu.dcache.overall_miss_rate::total     0.246626                       # miss rate for overall accesses
system.cpu.dcache.ReadReq_avg_miss_latency::switch_cpus.data 56126.314252                       # average ReadReq miss latency
system.cpu.dcache.ReadReq_avg_miss_latency::total 56126.314252                       # average ReadReq miss latency
system.cpu.dcache.WriteReq_avg_miss_latency::switch_cpus.data 26886.491271                       # average WriteReq miss latency
system.cpu.dcache.WriteReq_avg_miss_latency::total 26886.491271                       # average WriteReq miss latency
system.cpu.dcache.demand_avg_miss_latency::switch_cpus.data 44958.146604                       # average overall miss latency
system.cpu.dcache.demand_avg_miss_latency::total 44958.146604                       # average overall miss latency
system.cpu.dcache.overall_avg_miss_latency::switch_cpus.data 44958.146604                       # average overall miss latency
system.cpu.dcache.overall_avg_miss_latency::total 44958.146604                       # average overall miss latency
system.cpu.dcache.blocked_cycles::no_mshrs   1046601068                       # number of cycles access was blocked
system.cpu.dcache.blocked_cycles::no_targets            0                       # number of cycles access was blocked
system.cpu.dcache.blocked::no_mshrs          34193141                       # number of cycles access was blocked
system.cpu.dcache.blocked::no_targets               0                       # number of cycles access was blocked
system.cpu.dcache.avg_blocked_cycles::no_mshrs    30.608509                       # average number of cycles each access was blocked
system.cpu.dcache.avg_blocked_cycles::no_targets          nan                       # average number of cycles each access was blocked
system.cpu.dcache.fast_writes                       0                       # number of fast writes performed
system.cpu.dcache.cache_copies                      0                       # number of cache copies performed
system.cpu.dcache.writebacks::writebacks     47639167                       # number of writebacks
system.cpu.dcache.writebacks::total          47639167                       # number of writebacks
system.cpu.dcache.ReadReq_mshr_hits::switch_cpus.data     61208306                       # number of ReadReq MSHR hits
system.cpu.dcache.ReadReq_mshr_hits::total     61208306                       # number of ReadReq MSHR hits
system.cpu.dcache.demand_mshr_hits::switch_cpus.data     61208306                       # number of demand (read+write) MSHR hits
system.cpu.dcache.demand_mshr_hits::total     61208306                       # number of demand (read+write) MSHR hits
system.cpu.dcache.overall_mshr_hits::switch_cpus.data     61208306                       # number of overall MSHR hits
system.cpu.dcache.overall_mshr_hits::total     61208306                       # number of overall MSHR hits
system.cpu.dcache.ReadReq_mshr_misses::switch_cpus.data     15878529                       # number of ReadReq MSHR misses
system.cpu.dcache.ReadReq_mshr_misses::total     15878529                       # number of ReadReq MSHR misses
system.cpu.dcache.WriteReq_mshr_misses::switch_cpus.data     47639172                       # number of WriteReq MSHR misses
system.cpu.dcache.WriteReq_mshr_misses::total     47639172                       # number of WriteReq MSHR misses
system.cpu.dcache.demand_mshr_misses::switch_cpus.data     63517701                       # number of demand (read+write) MSHR misses
system.cpu.dcache.demand_mshr_misses::total     63517701                       # number of demand (read+write) MSHR misses
system.cpu.dcache.overall_mshr_misses::switch_cpus.data     63517701                       # number of overall MSHR misses
system.cpu.dcache.overall_mshr_misses::total     63517701                       # number of overall MSHR misses
system.cpu.dcache.ReadReq_mshr_miss_latency::switch_cpus.data 1154129807167                       # number of ReadReq MSHR miss cycles
system.cpu.dcache.ReadReq_mshr_miss_latency::total 1154129807167                       # number of ReadReq MSHR miss cycles
system.cpu.dcache.WriteReq_mshr_miss_latency::switch_cpus.data 1212176075252                       # number of WriteReq MSHR miss cycles
system.cpu.dcache.WriteReq_mshr_miss_latency::total 1212176075252                       # number of WriteReq MSHR miss cycles
system.cpu.dcache.demand_mshr_miss_latency::switch_cpus.data 2366305882419                       # number of demand (read+write) MSHR miss cycles
system.cpu.dcache.demand_mshr_miss_latency::total 2366305882419                       # number of demand (read+write) MSHR miss cycles
system.cpu.dcache.overall_mshr_miss_latency::switch_cpus.data 2366305882419                       # number of overall MSHR miss cycles
system.cpu.dcache.overall_mshr_miss_latency::total 2366305882419                       # number of overall MSHR miss cycles
system.cpu.dcache.ReadReq_mshr_miss_rate::switch_cpus.data     0.048470                       # mshr miss rate for ReadReq accesses
system.cpu.dcache.ReadReq_mshr_miss_rate::total     0.048470                       # mshr miss rate for ReadReq accesses
system.cpu.dcache.WriteReq_mshr_miss_rate::switch_cpus.data     0.267432                       # mshr miss rate for WriteReq accesses
system.cpu.dcache.WriteReq_mshr_miss_rate::total     0.267432                       # mshr miss rate for WriteReq accesses
system.cpu.dcache.demand_mshr_miss_rate::switch_cpus.data     0.125596                       # mshr miss rate for demand accesses
system.cpu.dcache.demand_mshr_miss_rate::total     0.125596                       # mshr miss rate for demand accesses
system.cpu.dcache.overall_mshr_miss_rate::switch_cpus.data     0.125596                       # mshr miss rate for overall accesses
system.cpu.dcache.overall_mshr_miss_rate::total     0.125596                       # mshr miss rate for overall accesses
system.cpu.dcache.ReadReq_avg_mshr_miss_latency::switch_cpus.data 72684.932412                       # average ReadReq mshr miss latency
system.cpu.dcache.ReadReq_avg_mshr_miss_latency::total 72684.932412                       # average ReadReq mshr miss latency
system.cpu.dcache.WriteReq_avg_mshr_miss_latency::switch_cpus.data 25444.944242                       # average WriteReq mshr miss latency
system.cpu.dcache.WriteReq_avg_mshr_miss_latency::total 25444.944242                       # average WriteReq mshr miss latency
system.cpu.dcache.demand_avg_mshr_miss_latency::switch_cpus.data 37254.274717                       # average overall mshr miss latency
system.cpu.dcache.demand_avg_mshr_miss_latency::total 37254.274717                       # average overall mshr miss latency
system.cpu.dcache.overall_avg_mshr_miss_latency::switch_cpus.data 37254.274717                       # average overall mshr miss latency
system.cpu.dcache.overall_avg_mshr_miss_latency::total 37254.274717                       # average overall mshr miss latency
system.cpu.dcache.no_allocate_misses                0                       # Number of misses that were no-allocate

---------- End Simulation Statistics   ----------
