gem5 Simulator System.  http://gem5.org
gem5 is copyrighted software; use the --copyright option for details.

gem5 compiled Dec  1 2013 19:30:39
gem5 started Dec  2 2013 23:51:37
gem5 executing on compute-13-2.local
command line: /data/users/abanaiya/gem5/gem5-mgottscho/build/ALPHA/gem5.fast --outdir=/data/users/abanaiya/gem5/gem5-mgottscho/m5out/sjeng/static1_B /data/users/abanaiya/gem5/gem5-mgottscho/configs/example/spec06_config.py --cpu-type=detailed --num-cpus=1 --sys-clock=3GHz --sys-voltage=1V --cpu-clock=3GHz --mem-type=ddr3_1600_x64 --mem-channels=1 --mem-size=2048MB --caches --l2cache --num-l2caches=1 --num-l3caches=0 --l1d_size=256kB --l1i_size=256kB --l2_size=8MB --l1d_assoc=8 --l1i_assoc=8 --l2_assoc=16 --cacheline_size=64 --fast-forward=1000000000 --maxinsts=2000000000 --at-instruction --benchmark=sjeng --benchmark_stdout=/data/users/abanaiya/gem5/gem5-mgottscho/m5out/sjeng/static1_B/sjeng.out --benchmark_stderr=/data/users/abanaiya/gem5/gem5-mgottscho/m5out/sjeng/static1_B/sjeng.err --l1_cache_mode=static --l2_cache_mode=static --l1_voltage_parameter_file=/data/users/abanaiya/gem5/gem5-mgottscho/gem5params-L1-B.csv --l2_voltage_parameter_file=/data/users/abanaiya/gem5/gem5-mgottscho/gem5params-L2-B.csv --l1_hit_latency=3 --l2_hit_latency=8 --l2_miss_penalty=200 --monte_carlo=no --vdd3_l1=1000 --vdd2_l1=670 --vdd1_l1=540 --vdd3_l2=1000 --vdd2_l2=670 --vdd1_l2=530 --vdd_switch_overhead=40 --dpcs_l1_sample_interval=100000 --dpcs_l2_sample_interval=10000 --dpcs_super_sample_interval=20 --dpcs_l1_miss_threshold_low=0.05 --dpcs_l1_miss_threshold_high=0.10 --dpcs_l2_miss_threshold_low=0.05 --dpcs_l2_miss_threshold_high=0.10
Selected SPEC_CPU2006 benchmark
--> sjeng
Process stdout file: /data/users/abanaiya/gem5/gem5-mgottscho/m5out/sjeng/static1_B/sjeng.out
Process stderr file: /data/users/abanaiya/gem5/gem5-mgottscho/m5out/sjeng/static1_B/sjeng.err
['sjeng_base.alpha', 'ref.txt']
Global frequency set at 1000000000000 ticks per second
info: DPCS: Reading this cache's voltage parameter file...
info: DPCS: This cache is using VDD3 = 1000 mV, VDD2 = 670 mV, VDD1 = 530 mV
info: Generating fault maps for this cache, try #1
info: Built DPCSLRU cache tags and blocks...
...mode == 1
...VDD3 == 1000 mV
...VDD2 == 670 mV
...VDD1 == 530 mV
...bitFaultRates_VDD3 == 9.492E-11
...bitFaultRates_VDD2 == 4.493E-06
...bitFaultRates_VDD1 == 2.075E-04
...staticPower_VDD3 == 19638.771
...staticPower_VDD2 == 8751.173
...staticPower_VDD1 == 4663.295
...accessEnergy_VDD3 == 0.362
...accessEnergy_VDD2 == 0.336
...accessEnergy_VDD1 == 0.325
...NumFaultyBlocks_VDD3 == 0
...NumFaultyBlocks_VDD2 == 1162
...NumFaultyBlocks_VDD1 == 48943
info: Using DPCSLRU tags for cache system.l2
info: DPCSTransitionLatency on this cache is 16424 cycles (numSets = 8192), missThresholdHigh = 0.100, missThresholdLow = 0.050, missPenalty is 200 cycles
info: DPCS: Reading this cache's voltage parameter file...
info: DPCS: This cache is using VDD3 = 1000 mV, VDD2 = 670 mV, VDD1 = 540 mV
info: Using LRU tags for cache system.cpu.icache
info: DPCS: Reading this cache's voltage parameter file...
info: DPCS: This cache is using VDD3 = 1000 mV, VDD2 = 670 mV, VDD1 = 540 mV
info: Generating fault maps for this cache, try #1
info: Built DPCSLRU cache tags and blocks...
...mode == 1
...VDD3 == 1000 mV
...VDD2 == 670 mV
...VDD1 == 540 mV
...bitFaultRates_VDD3 == 9.492E-11
...bitFaultRates_VDD2 == 4.493E-06
...bitFaultRates_VDD1 == 1.622E-04
...staticPower_VDD3 == 673.951
...staticPower_VDD2 == 333.714
...staticPower_VDD1 == 218.309
...accessEnergy_VDD3 == 0.061
...accessEnergy_VDD2 == 0.054
...accessEnergy_VDD1 == 0.052
...NumFaultyBlocks_VDD3 == 0
...NumFaultyBlocks_VDD2 == 30
...NumFaultyBlocks_VDD1 == 1221
info: Using DPCSLRU tags for cache system.cpu.dcache
info: DPCSTransitionLatency on this cache is 1064 cycles (numSets = 512), missThresholdHigh = 0.100, missThresholdLow = 0.050, missPenalty is 8 cycles
Switch at instruction count:1000000000
info: Entering event queue @ 0.  Starting simulation...
info: Increasing stack size by one page.
info: Increasing stack size by one page.
info: Increasing stack size by one page.
info: Increasing stack size by one page.
info: Increasing stack size by one page.
info: Increasing stack size by one page.
info: Increasing stack size by one page.
info: Increasing stack size by one page.
info: Increasing stack size by one page.
info: Increasing stack size by one page.
info: Increasing stack size by one page.
info: Increasing stack size by one page.
info: Increasing stack size by one page.
info: Increasing stack size by one page.
info: Increasing stack size by one page.
info: Increasing stack size by one page.
info: Increasing stack size by one page.
info: Increasing stack size by one page.
info: Increasing stack size by one page.
info: Increasing stack size by one page.
info: Increasing stack size by one page.
info: Increasing stack size by one page.
info: Increasing stack size by one page.
info: Increasing stack size by one page.
info: Increasing stack size by one page.
info: Increasing stack size by one page.
info: Increasing stack size by one page.
info: Increasing stack size by one page.
info: Increasing stack size by one page.
info: Increasing stack size by one page.
info: Increasing stack size by one page.
info: Increasing stack size by one page.
info: Increasing stack size by one page.
info: Increasing stack size by one page.
info: Increasing stack size by one page.
info: Increasing stack size by one page.
info: Increasing stack size by one page.
info: Increasing stack size by one page.
info: Increasing stack size by one page.
info: Increasing stack size by one page.
info: Increasing stack size by one page.
info: Increasing stack size by one page.
info: Increasing stack size by one page.
info: Increasing stack size by one page.
info: Increasing stack size by one page.
info: Increasing stack size by one page.
info: Increasing stack size by one page.
info: Increasing stack size by one page.
Switched CPUS @ tick 333219354093
switching cpus
**** REAL SIMULATION ****
info: [system.l2] recomputing block fault stats!
info: [system.cpu.icache] recomputing block fault stats!
info: [system.cpu.dcache] recomputing block fault stats!
info: Entering event queue @ 333219354093.  Starting simulation...
info: Increasing stack size by one page.
info: Increasing stack size by one page.
info: Increasing stack size by one page.
info: Increasing stack size by one page.
info: Increasing stack size by one page.
info: Increasing stack size by one page.
info: Increasing stack size by one page.
info: Increasing stack size by one page.
Exiting @ tick 901854214362 because a thread reached the max instruction count
