
---------- Begin Simulation Statistics ----------
sim_seconds                                  0.568543                       # Number of seconds simulated
sim_ticks                                568543481739                       # Number of ticks simulated
final_tick                               901762835832                       # Number of ticks from beginning of simulation (restored from checkpoints and never reset)
sim_freq                                 1000000000000                       # Frequency of simulated ticks
host_inst_rate                                 194432                       # Simulator instruction rate (inst/s)
host_op_rate                                   194432                       # Simulator op (including micro ops) rate (op/s)
host_tick_rate                               36847671                       # Simulator tick rate (ticks/s)
host_mem_usage                                2348120                       # Number of bytes of host memory used
host_seconds                                 15429.56                       # Real time elapsed on the host
sim_insts                                  3000000001                       # Number of instructions simulated
sim_ops                                    3000000001                       # Number of ops (including micro ops) simulated
system.mem_ctrls.bytes_read::switch_cpus.inst         7616                       # Number of bytes read from this memory
system.mem_ctrls.bytes_read::switch_cpus.data     28301568                       # Number of bytes read from this memory
system.mem_ctrls.bytes_read::total           28309184                       # Number of bytes read from this memory
system.mem_ctrls.bytes_inst_read::switch_cpus.inst         7616                       # Number of instructions bytes read from this memory
system.mem_ctrls.bytes_inst_read::total          7616                       # Number of instructions bytes read from this memory
system.mem_ctrls.bytes_written::writebacks     23797056                       # Number of bytes written to this memory
system.mem_ctrls.bytes_written::total        23797056                       # Number of bytes written to this memory
system.mem_ctrls.num_reads::switch_cpus.inst          119                       # Number of read requests responded to by this memory
system.mem_ctrls.num_reads::switch_cpus.data       442212                       # Number of read requests responded to by this memory
system.mem_ctrls.num_reads::total              442331                       # Number of read requests responded to by this memory
system.mem_ctrls.num_writes::writebacks        371829                       # Number of write requests responded to by this memory
system.mem_ctrls.num_writes::total             371829                       # Number of write requests responded to by this memory
system.mem_ctrls.bw_read::switch_cpus.inst        13396                       # Total read bandwidth from this memory (bytes/s)
system.mem_ctrls.bw_read::switch_cpus.data     49779074                       # Total read bandwidth from this memory (bytes/s)
system.mem_ctrls.bw_read::total              49792470                       # Total read bandwidth from this memory (bytes/s)
system.mem_ctrls.bw_inst_read::switch_cpus.inst        13396                       # Instruction read bandwidth from this memory (bytes/s)
system.mem_ctrls.bw_inst_read::total            13396                       # Instruction read bandwidth from this memory (bytes/s)
system.mem_ctrls.bw_write::writebacks        41856176                       # Write bandwidth from this memory (bytes/s)
system.mem_ctrls.bw_write::total             41856176                       # Write bandwidth from this memory (bytes/s)
system.mem_ctrls.bw_total::writebacks        41856176                       # Total bandwidth to/from this memory (bytes/s)
system.mem_ctrls.bw_total::switch_cpus.inst        13396                       # Total bandwidth to/from this memory (bytes/s)
system.mem_ctrls.bw_total::switch_cpus.data     49779074                       # Total bandwidth to/from this memory (bytes/s)
system.mem_ctrls.bw_total::total             91648645                       # Total bandwidth to/from this memory (bytes/s)
system.mem_ctrls.readReqs                      442331                       # Total number of read requests accepted by DRAM controller
system.mem_ctrls.writeReqs                     371829                       # Total number of write requests accepted by DRAM controller
system.mem_ctrls.readBursts                    442331                       # Total number of DRAM read bursts. Each DRAM read request translates to either one or multiple DRAM read bursts
system.mem_ctrls.writeBursts                   371829                       # Total number of DRAM write bursts. Each DRAM write request translates to either one or multiple DRAM write bursts
system.mem_ctrls.bytesRead                   28309184                       # Total number of bytes read from memory
system.mem_ctrls.bytesWritten                23797056                       # Total number of bytes written to memory
system.mem_ctrls.bytesConsumedRd             28309184                       # bytesRead derated as per pkt->getSize()
system.mem_ctrls.bytesConsumedWr             23797056                       # bytesWritten derated as per pkt->getSize()
system.mem_ctrls.servicedByWrQ                      6                       # Number of DRAM read bursts serviced by write Q
system.mem_ctrls.neitherReadNorWrite                0                       # Reqs where no action is needed
system.mem_ctrls.perBankRdReqs::0               27774                       # Track reads on a per bank basis
system.mem_ctrls.perBankRdReqs::1               27589                       # Track reads on a per bank basis
system.mem_ctrls.perBankRdReqs::2               27566                       # Track reads on a per bank basis
system.mem_ctrls.perBankRdReqs::3               27976                       # Track reads on a per bank basis
system.mem_ctrls.perBankRdReqs::4               27577                       # Track reads on a per bank basis
system.mem_ctrls.perBankRdReqs::5               27689                       # Track reads on a per bank basis
system.mem_ctrls.perBankRdReqs::6               27569                       # Track reads on a per bank basis
system.mem_ctrls.perBankRdReqs::7               27265                       # Track reads on a per bank basis
system.mem_ctrls.perBankRdReqs::8               27884                       # Track reads on a per bank basis
system.mem_ctrls.perBankRdReqs::9               27512                       # Track reads on a per bank basis
system.mem_ctrls.perBankRdReqs::10              27479                       # Track reads on a per bank basis
system.mem_ctrls.perBankRdReqs::11              27609                       # Track reads on a per bank basis
system.mem_ctrls.perBankRdReqs::12              27855                       # Track reads on a per bank basis
system.mem_ctrls.perBankRdReqs::13              27563                       # Track reads on a per bank basis
system.mem_ctrls.perBankRdReqs::14              27606                       # Track reads on a per bank basis
system.mem_ctrls.perBankRdReqs::15              27812                       # Track reads on a per bank basis
system.mem_ctrls.perBankWrReqs::0               23417                       # Track writes on a per bank basis
system.mem_ctrls.perBankWrReqs::1               23229                       # Track writes on a per bank basis
system.mem_ctrls.perBankWrReqs::2               23163                       # Track writes on a per bank basis
system.mem_ctrls.perBankWrReqs::3               23364                       # Track writes on a per bank basis
system.mem_ctrls.perBankWrReqs::4               23157                       # Track writes on a per bank basis
system.mem_ctrls.perBankWrReqs::5               23321                       # Track writes on a per bank basis
system.mem_ctrls.perBankWrReqs::6               23197                       # Track writes on a per bank basis
system.mem_ctrls.perBankWrReqs::7               22878                       # Track writes on a per bank basis
system.mem_ctrls.perBankWrReqs::8               23393                       # Track writes on a per bank basis
system.mem_ctrls.perBankWrReqs::9               23139                       # Track writes on a per bank basis
system.mem_ctrls.perBankWrReqs::10              23072                       # Track writes on a per bank basis
system.mem_ctrls.perBankWrReqs::11              23260                       # Track writes on a per bank basis
system.mem_ctrls.perBankWrReqs::12              23427                       # Track writes on a per bank basis
system.mem_ctrls.perBankWrReqs::13              23228                       # Track writes on a per bank basis
system.mem_ctrls.perBankWrReqs::14              23193                       # Track writes on a per bank basis
system.mem_ctrls.perBankWrReqs::15              23391                       # Track writes on a per bank basis
system.mem_ctrls.numRdRetry                         0                       # Number of times rd buffer was full causing retry
system.mem_ctrls.numWrRetry                         0                       # Number of times wr buffer was full causing retry
system.mem_ctrls.totGap                  568541539350                       # Total gap between requests
system.mem_ctrls.readPktSize::0                     0                       # Categorize read packet sizes
system.mem_ctrls.readPktSize::1                     0                       # Categorize read packet sizes
system.mem_ctrls.readPktSize::2                     0                       # Categorize read packet sizes
system.mem_ctrls.readPktSize::3                     0                       # Categorize read packet sizes
system.mem_ctrls.readPktSize::4                     0                       # Categorize read packet sizes
system.mem_ctrls.readPktSize::5                     0                       # Categorize read packet sizes
system.mem_ctrls.readPktSize::6                442331                       # Categorize read packet sizes
system.mem_ctrls.writePktSize::0                    0                       # Categorize write packet sizes
system.mem_ctrls.writePktSize::1                    0                       # Categorize write packet sizes
system.mem_ctrls.writePktSize::2                    0                       # Categorize write packet sizes
system.mem_ctrls.writePktSize::3                    0                       # Categorize write packet sizes
system.mem_ctrls.writePktSize::4                    0                       # Categorize write packet sizes
system.mem_ctrls.writePktSize::5                    0                       # Categorize write packet sizes
system.mem_ctrls.writePktSize::6               371829                       # Categorize write packet sizes
system.mem_ctrls.rdQLenPdf::0                  438133                       # What read queue length does an incoming req see
system.mem_ctrls.rdQLenPdf::1                    4064                       # What read queue length does an incoming req see
system.mem_ctrls.rdQLenPdf::2                      96                       # What read queue length does an incoming req see
system.mem_ctrls.rdQLenPdf::3                      30                       # What read queue length does an incoming req see
system.mem_ctrls.rdQLenPdf::4                       1                       # What read queue length does an incoming req see
system.mem_ctrls.rdQLenPdf::5                       1                       # What read queue length does an incoming req see
system.mem_ctrls.rdQLenPdf::6                       0                       # What read queue length does an incoming req see
system.mem_ctrls.rdQLenPdf::7                       0                       # What read queue length does an incoming req see
system.mem_ctrls.rdQLenPdf::8                       0                       # What read queue length does an incoming req see
system.mem_ctrls.rdQLenPdf::9                       0                       # What read queue length does an incoming req see
system.mem_ctrls.rdQLenPdf::10                      0                       # What read queue length does an incoming req see
system.mem_ctrls.rdQLenPdf::11                      0                       # What read queue length does an incoming req see
system.mem_ctrls.rdQLenPdf::12                      0                       # What read queue length does an incoming req see
system.mem_ctrls.rdQLenPdf::13                      0                       # What read queue length does an incoming req see
system.mem_ctrls.rdQLenPdf::14                      0                       # What read queue length does an incoming req see
system.mem_ctrls.rdQLenPdf::15                      0                       # What read queue length does an incoming req see
system.mem_ctrls.rdQLenPdf::16                      0                       # What read queue length does an incoming req see
system.mem_ctrls.rdQLenPdf::17                      0                       # What read queue length does an incoming req see
system.mem_ctrls.rdQLenPdf::18                      0                       # What read queue length does an incoming req see
system.mem_ctrls.rdQLenPdf::19                      0                       # What read queue length does an incoming req see
system.mem_ctrls.rdQLenPdf::20                      0                       # What read queue length does an incoming req see
system.mem_ctrls.rdQLenPdf::21                      0                       # What read queue length does an incoming req see
system.mem_ctrls.rdQLenPdf::22                      0                       # What read queue length does an incoming req see
system.mem_ctrls.rdQLenPdf::23                      0                       # What read queue length does an incoming req see
system.mem_ctrls.rdQLenPdf::24                      0                       # What read queue length does an incoming req see
system.mem_ctrls.rdQLenPdf::25                      0                       # What read queue length does an incoming req see
system.mem_ctrls.rdQLenPdf::26                      0                       # What read queue length does an incoming req see
system.mem_ctrls.rdQLenPdf::27                      0                       # What read queue length does an incoming req see
system.mem_ctrls.rdQLenPdf::28                      0                       # What read queue length does an incoming req see
system.mem_ctrls.rdQLenPdf::29                      0                       # What read queue length does an incoming req see
system.mem_ctrls.rdQLenPdf::30                      0                       # What read queue length does an incoming req see
system.mem_ctrls.rdQLenPdf::31                      0                       # What read queue length does an incoming req see
system.mem_ctrls.wrQLenPdf::0                   16028                       # What write queue length does an incoming req see
system.mem_ctrls.wrQLenPdf::1                   16167                       # What write queue length does an incoming req see
system.mem_ctrls.wrQLenPdf::2                   16167                       # What write queue length does an incoming req see
system.mem_ctrls.wrQLenPdf::3                   16167                       # What write queue length does an incoming req see
system.mem_ctrls.wrQLenPdf::4                   16167                       # What write queue length does an incoming req see
system.mem_ctrls.wrQLenPdf::5                   16167                       # What write queue length does an incoming req see
system.mem_ctrls.wrQLenPdf::6                   16167                       # What write queue length does an incoming req see
system.mem_ctrls.wrQLenPdf::7                   16167                       # What write queue length does an incoming req see
system.mem_ctrls.wrQLenPdf::8                   16167                       # What write queue length does an incoming req see
system.mem_ctrls.wrQLenPdf::9                   16167                       # What write queue length does an incoming req see
system.mem_ctrls.wrQLenPdf::10                  16167                       # What write queue length does an incoming req see
system.mem_ctrls.wrQLenPdf::11                  16166                       # What write queue length does an incoming req see
system.mem_ctrls.wrQLenPdf::12                  16166                       # What write queue length does an incoming req see
system.mem_ctrls.wrQLenPdf::13                  16166                       # What write queue length does an incoming req see
system.mem_ctrls.wrQLenPdf::14                  16166                       # What write queue length does an incoming req see
system.mem_ctrls.wrQLenPdf::15                  16166                       # What write queue length does an incoming req see
system.mem_ctrls.wrQLenPdf::16                  16166                       # What write queue length does an incoming req see
system.mem_ctrls.wrQLenPdf::17                  16166                       # What write queue length does an incoming req see
system.mem_ctrls.wrQLenPdf::18                  16166                       # What write queue length does an incoming req see
system.mem_ctrls.wrQLenPdf::19                  16166                       # What write queue length does an incoming req see
system.mem_ctrls.wrQLenPdf::20                  16166                       # What write queue length does an incoming req see
system.mem_ctrls.wrQLenPdf::21                  16166                       # What write queue length does an incoming req see
system.mem_ctrls.wrQLenPdf::22                  16166                       # What write queue length does an incoming req see
system.mem_ctrls.wrQLenPdf::23                    139                       # What write queue length does an incoming req see
system.mem_ctrls.wrQLenPdf::24                      0                       # What write queue length does an incoming req see
system.mem_ctrls.wrQLenPdf::25                      0                       # What write queue length does an incoming req see
system.mem_ctrls.wrQLenPdf::26                      0                       # What write queue length does an incoming req see
system.mem_ctrls.wrQLenPdf::27                      0                       # What write queue length does an incoming req see
system.mem_ctrls.wrQLenPdf::28                      0                       # What write queue length does an incoming req see
system.mem_ctrls.wrQLenPdf::29                      0                       # What write queue length does an incoming req see
system.mem_ctrls.wrQLenPdf::30                      0                       # What write queue length does an incoming req see
system.mem_ctrls.wrQLenPdf::31                      0                       # What write queue length does an incoming req see
system.mem_ctrls.bytesPerActivate::samples       790838                       # Bytes accessed per row activation
system.mem_ctrls.bytesPerActivate::mean     65.885999                       # Bytes accessed per row activation
system.mem_ctrls.bytesPerActivate::gmean    65.303059                       # Bytes accessed per row activation
system.mem_ctrls.bytesPerActivate::stdev    11.753912                       # Bytes accessed per row activation
system.mem_ctrls.bytesPerActivate::64          768040     97.12%     97.12% # Bytes accessed per row activation
system.mem_ctrls.bytesPerActivate::128          22590      2.86%     99.97% # Bytes accessed per row activation
system.mem_ctrls.bytesPerActivate::192            134      0.02%     99.99% # Bytes accessed per row activation
system.mem_ctrls.bytesPerActivate::256             24      0.00%     99.99% # Bytes accessed per row activation
system.mem_ctrls.bytesPerActivate::320             14      0.00%    100.00% # Bytes accessed per row activation
system.mem_ctrls.bytesPerActivate::384              9      0.00%    100.00% # Bytes accessed per row activation
system.mem_ctrls.bytesPerActivate::448              8      0.00%    100.00% # Bytes accessed per row activation
system.mem_ctrls.bytesPerActivate::512              6      0.00%    100.00% # Bytes accessed per row activation
system.mem_ctrls.bytesPerActivate::576              1      0.00%    100.00% # Bytes accessed per row activation
system.mem_ctrls.bytesPerActivate::640              1      0.00%    100.00% # Bytes accessed per row activation
system.mem_ctrls.bytesPerActivate::704              1      0.00%    100.00% # Bytes accessed per row activation
system.mem_ctrls.bytesPerActivate::768              4      0.00%    100.00% # Bytes accessed per row activation
system.mem_ctrls.bytesPerActivate::832              1      0.00%    100.00% # Bytes accessed per row activation
system.mem_ctrls.bytesPerActivate::960              1      0.00%    100.00% # Bytes accessed per row activation
system.mem_ctrls.bytesPerActivate::1280             1      0.00%    100.00% # Bytes accessed per row activation
system.mem_ctrls.bytesPerActivate::1408             2      0.00%    100.00% # Bytes accessed per row activation
system.mem_ctrls.bytesPerActivate::1728             1      0.00%    100.00% # Bytes accessed per row activation
system.mem_ctrls.bytesPerActivate::total       790838                       # Bytes accessed per row activation
system.mem_ctrls.totQLat                   6301074422                       # Total cycles spent in queuing delays
system.mem_ctrls.totMemAccLat             26081321922                       # Sum of mem lat for all requests
system.mem_ctrls.totBusLat                 2211625000                       # Total cycles spent in databus access
system.mem_ctrls.totBankLat               17568622500                       # Total cycles spent in bank access
system.mem_ctrls.avgQLat                     14245.35                       # Average queueing delay per request
system.mem_ctrls.avgBankLat                  39718.81                       # Average bank access latency per request
system.mem_ctrls.avgBusLat                    5000.00                       # Average bus latency per request
system.mem_ctrls.avgMemAccLat                58964.16                       # Average memory access latency
system.mem_ctrls.avgRdBW                        49.79                       # Average achieved read bandwidth in MB/s
system.mem_ctrls.avgWrBW                        41.86                       # Average achieved write bandwidth in MB/s
system.mem_ctrls.avgConsumedRdBW                49.79                       # Average consumed read bandwidth in MB/s
system.mem_ctrls.avgConsumedWrBW                41.86                       # Average consumed write bandwidth in MB/s
system.mem_ctrls.peakBW                      12800.00                       # Theoretical peak bandwidth in MB/s
system.mem_ctrls.busUtil                         0.72                       # Data bus utilization in percentage
system.mem_ctrls.avgRdQLen                       0.05                       # Average read queue length over time
system.mem_ctrls.avgWrQLen                      10.89                       # Average write queue length over time
system.mem_ctrls.readRowHits                    22327                       # Number of row buffer hits during reads
system.mem_ctrls.writeRowHits                     978                       # Number of row buffer hits during writes
system.mem_ctrls.readRowHitRate                  5.05                       # Row buffer hit rate for reads
system.mem_ctrls.writeRowHitRate                 0.26                       # Row buffer hit rate for writes
system.mem_ctrls.avgGap                     698316.72                       # Average gap between requests
system.membus.throughput                     91648645                       # Throughput (bytes/s)
system.membus.trans_dist::ReadReq              416493                       # Transaction distribution
system.membus.trans_dist::ReadResp             416493                       # Transaction distribution
system.membus.trans_dist::Writeback            371829                       # Transaction distribution
system.membus.trans_dist::ReadExReq             25838                       # Transaction distribution
system.membus.trans_dist::ReadExResp            25838                       # Transaction distribution
system.membus.pkt_count_system.l2.mem_side::system.mem_ctrls.port      1256491                       # Packet count per connected master and slave (bytes)
system.membus.pkt_count::total                1256491                       # Packet count per connected master and slave (bytes)
system.membus.tot_pkt_size_system.l2.mem_side::system.mem_ctrls.port     52106240                       # Cumulative packet size per connected master and slave (bytes)
system.membus.tot_pkt_size::total            52106240                       # Cumulative packet size per connected master and slave (bytes)
system.membus.data_through_bus               52106240                       # Total data (bytes)
system.membus.snoop_data_through_bus                0                       # Total snoop data (bytes)
system.membus.reqLayer0.occupancy          1261667736                       # Layer occupancy (ticks)
system.membus.reqLayer0.utilization               0.2                       # Layer utilization (%)
system.membus.respLayer1.occupancy         1339802756                       # Layer occupancy (ticks)
system.membus.respLayer1.utilization              0.2                       # Layer utilization (%)
system.switch_cpus.branchPred.lookups       538315021                       # Number of BP lookups
system.switch_cpus.branchPred.condPredicted    448685721                       # Number of conditional branches predicted
system.switch_cpus.branchPred.condIncorrect     35407818                       # Number of conditional branches incorrect
system.switch_cpus.branchPred.BTBLookups    277385943                       # Number of BTB lookups
system.switch_cpus.branchPred.BTBHits       261102601                       # Number of BTB hits
system.switch_cpus.branchPred.BTBCorrect            0                       # Number of correct BTB predictions (this stat may not work properly.
system.switch_cpus.branchPred.BTBHitPct     94.129716                       # BTB Hit Percentage
system.switch_cpus.branchPred.usedRAS        25273047                       # Number of times the RAS was used to get a target.
system.switch_cpus.branchPred.RASInCorrect       333360                       # Number of incorrect RAS predictions.
system.switch_cpus.dtb.fetch_hits                   0                       # ITB hits
system.switch_cpus.dtb.fetch_misses                 0                       # ITB misses
system.switch_cpus.dtb.fetch_acv                    0                       # ITB acv
system.switch_cpus.dtb.fetch_accesses               0                       # ITB accesses
system.switch_cpus.dtb.read_hits            590252238                       # DTB read hits
system.switch_cpus.dtb.read_misses            2430272                       # DTB read misses
system.switch_cpus.dtb.read_acv                     0                       # DTB read access violations
system.switch_cpus.dtb.read_accesses        592682510                       # DTB read accesses
system.switch_cpus.dtb.write_hits           177276730                       # DTB write hits
system.switch_cpus.dtb.write_misses           1936979                       # DTB write misses
system.switch_cpus.dtb.write_acv                    0                       # DTB write access violations
system.switch_cpus.dtb.write_accesses       179213709                       # DTB write accesses
system.switch_cpus.dtb.data_hits            767528968                       # DTB hits
system.switch_cpus.dtb.data_misses            4367251                       # DTB misses
system.switch_cpus.dtb.data_acv                     0                       # DTB access violations
system.switch_cpus.dtb.data_accesses        771896219                       # DTB accesses
system.switch_cpus.itb.fetch_hits           437406364                       # ITB hits
system.switch_cpus.itb.fetch_misses               256                       # ITB misses
system.switch_cpus.itb.fetch_acv                    0                       # ITB acv
system.switch_cpus.itb.fetch_accesses       437406620                       # ITB accesses
system.switch_cpus.itb.read_hits                    0                       # DTB read hits
system.switch_cpus.itb.read_misses                  0                       # DTB read misses
system.switch_cpus.itb.read_acv                     0                       # DTB read access violations
system.switch_cpus.itb.read_accesses                0                       # DTB read accesses
system.switch_cpus.itb.write_hits                   0                       # DTB write hits
system.switch_cpus.itb.write_misses                 0                       # DTB write misses
system.switch_cpus.itb.write_acv                    0                       # DTB write access violations
system.switch_cpus.itb.write_accesses               0                       # DTB write accesses
system.switch_cpus.itb.data_hits                    0                       # DTB hits
system.switch_cpus.itb.data_misses                  0                       # DTB misses
system.switch_cpus.itb.data_acv                     0                       # DTB access violations
system.switch_cpus.itb.data_accesses                0                       # DTB accesses
system.cpu.workload.num_syscalls                   15                       # Number of system calls
system.switch_cpus.numCycles               1707337783                       # number of cpu cycles simulated
system.switch_cpus.numWorkItemsStarted              0                       # number of work items this cpu started
system.switch_cpus.numWorkItemsCompleted            0                       # number of work items this cpu completed
system.switch_cpus.fetch.icacheStallCycles    878912119                       # Number of cycles fetch is stalled on an Icache miss
system.switch_cpus.fetch.Insts             3005271695                       # Number of instructions fetch has processed
system.switch_cpus.fetch.Branches           538315021                       # Number of branches that fetch encountered
system.switch_cpus.fetch.predictedBranches    286375648                       # Number of branches that fetch has predicted taken
system.switch_cpus.fetch.Cycles             569166578                       # Number of cycles fetch has run and was not squashing or blocked
system.switch_cpus.fetch.SquashCycles       137033528                       # Number of cycles fetch has spent squashing
system.switch_cpus.fetch.BlockedCycles      111032772                       # Number of cycles fetch has spent blocked
system.switch_cpus.fetch.MiscStallCycles           57                       # Number of cycles fetch has spent waiting on interrupts, or bad addresses, or out of MSHRs
system.switch_cpus.fetch.PendingTrapStallCycles         3263                       # Number of stall cycles due to pending traps
system.switch_cpus.fetch.IcacheWaitRetryStallCycles           32                       # Number of stall cycles due to full MSHR
system.switch_cpus.fetch.CacheLines         437406364                       # Number of cache lines fetched
system.switch_cpus.fetch.IcacheSquashes      19901497                       # Number of outstanding Icache misses that were squashed
system.switch_cpus.fetch.rateDist::samples   1659236928                       # Number of instructions fetched each cycle (Total)
system.switch_cpus.fetch.rateDist::mean      1.811237                       # Number of instructions fetched each cycle (Total)
system.switch_cpus.fetch.rateDist::stdev     2.902407                       # Number of instructions fetched each cycle (Total)
system.switch_cpus.fetch.rateDist::underflows            0      0.00%      0.00% # Number of instructions fetched each cycle (Total)
system.switch_cpus.fetch.rateDist::0       1090070350     65.70%     65.70% # Number of instructions fetched each cycle (Total)
system.switch_cpus.fetch.rateDist::1         51148147      3.08%     68.78% # Number of instructions fetched each cycle (Total)
system.switch_cpus.fetch.rateDist::2         52531952      3.17%     71.95% # Number of instructions fetched each cycle (Total)
system.switch_cpus.fetch.rateDist::3         33480386      2.02%     73.96% # Number of instructions fetched each cycle (Total)
system.switch_cpus.fetch.rateDist::4        130763141      7.88%     81.84% # Number of instructions fetched each cycle (Total)
system.switch_cpus.fetch.rateDist::5         30609443      1.84%     83.69% # Number of instructions fetched each cycle (Total)
system.switch_cpus.fetch.rateDist::6         34130847      2.06%     85.75% # Number of instructions fetched each cycle (Total)
system.switch_cpus.fetch.rateDist::7         24287671      1.46%     87.21% # Number of instructions fetched each cycle (Total)
system.switch_cpus.fetch.rateDist::8        212214991     12.79%    100.00% # Number of instructions fetched each cycle (Total)
system.switch_cpus.fetch.rateDist::overflows            0      0.00%    100.00% # Number of instructions fetched each cycle (Total)
system.switch_cpus.fetch.rateDist::min_value            0                       # Number of instructions fetched each cycle (Total)
system.switch_cpus.fetch.rateDist::max_value            8                       # Number of instructions fetched each cycle (Total)
system.switch_cpus.fetch.rateDist::total   1659236928                       # Number of instructions fetched each cycle (Total)
system.switch_cpus.fetch.branchRate          0.315295                       # Number of branch fetches per cycle
system.switch_cpus.fetch.rate                1.760209                       # Number of inst fetches per cycle
system.switch_cpus.decode.IdleCycles        896723253                       # Number of cycles decode is idle
system.switch_cpus.decode.BlockedCycles     107519588                       # Number of cycles decode is blocked
system.switch_cpus.decode.RunCycles         554001574                       # Number of cycles decode is running
system.switch_cpus.decode.UnblockCycles       2019993                       # Number of cycles decode is unblocking
system.switch_cpus.decode.SquashCycles       98972519                       # Number of cycles decode is squashing
system.switch_cpus.decode.BranchResolved     51166761                       # Number of times decode resolved a branch
system.switch_cpus.decode.BranchMispred       1181845                       # Number of times decode detected a branch misprediction
system.switch_cpus.decode.DecodedInsts     2927949982                       # Number of instructions handled by decode
system.switch_cpus.decode.SquashedInsts       2485037                       # Number of squashed instructions handled by decode
system.switch_cpus.rename.SquashCycles       98972519                       # Number of cycles rename is squashing
system.switch_cpus.rename.IdleCycles        914471953                       # Number of cycles rename is idle
system.switch_cpus.rename.BlockCycles        18446923                       # Number of cycles rename is blocking
system.switch_cpus.rename.serializeStallCycles     76256908                       # count of cycles rename stalled for serializing inst
system.switch_cpus.rename.RunCycles         538133613                       # Number of cycles rename is running
system.switch_cpus.rename.UnblockCycles      12955011                       # Number of cycles rename is unblocking
system.switch_cpus.rename.RenamedInsts     2847229577                       # Number of instructions processed by rename
system.switch_cpus.rename.ROBFullEvents         47736                       # Number of times rename has blocked due to ROB full
system.switch_cpus.rename.IQFullEvents          10833                       # Number of times rename has blocked due to IQ full
system.switch_cpus.rename.LSQFullEvents       8201545                       # Number of times rename has blocked due to LSQ full
system.switch_cpus.rename.RenamedOperands   2117483850                       # Number of destination operands rename has renamed
system.switch_cpus.rename.RenameLookups    3662419203                       # Number of register rename lookups that rename has made
system.switch_cpus.rename.int_rename_lookups   3645389566                       # Number of integer rename lookups
system.switch_cpus.rename.fp_rename_lookups     17029637                       # Number of floating rename lookups
system.switch_cpus.rename.CommittedMaps    1500908499                       # Number of HB maps that are committed
system.switch_cpus.rename.UndoneMaps        616575329                       # Number of HB maps that are undone due to squashing
system.switch_cpus.rename.serializingInsts      3664825                       # count of serializing insts renamed
system.switch_cpus.rename.tempSerializingInsts          175                       # count of temporary serializing insts renamed
system.switch_cpus.rename.skidInsts          40511878                       # count of insts added to the skid buffer
system.switch_cpus.memDep0.insertedLoads    653379919                       # Number of loads inserted to the mem dependence unit.
system.switch_cpus.memDep0.insertedStores    192889685                       # Number of stores inserted to the mem dependence unit.
system.switch_cpus.memDep0.conflictingLoads      9697072                       # Number of conflicting loads.
system.switch_cpus.memDep0.conflictingStores       947587                       # Number of conflicting stores.
system.switch_cpus.iq.iqInstsAdded         2665282837                       # Number of instructions added to the IQ (excludes non-spec)
system.switch_cpus.iq.iqNonSpecInstsAdded          216                       # Number of non-speculative instructions added to the IQ
system.switch_cpus.iq.iqInstsIssued        2415032306                       # Number of instructions issued
system.switch_cpus.iq.iqSquashedInstsIssued      5161852                       # Number of squashed instructions issued
system.switch_cpus.iq.iqSquashedInstsExamined    646663541                       # Number of squashed instructions iterated over during squash; mainly for profiling
system.switch_cpus.iq.iqSquashedOperandsExamined    412115129                       # Number of squashed operands that are examined and possibly removed from graph
system.switch_cpus.iq.iqSquashedNonSpecRemoved          141                       # Number of squashed non-spec instructions that were removed
system.switch_cpus.iq.issued_per_cycle::samples   1659236928                       # Number of insts issued each cycle
system.switch_cpus.iq.issued_per_cycle::mean     1.455508                       # Number of insts issued each cycle
system.switch_cpus.iq.issued_per_cycle::stdev     1.658398                       # Number of insts issued each cycle
system.switch_cpus.iq.issued_per_cycle::underflows            0      0.00%      0.00% # Number of insts issued each cycle
system.switch_cpus.iq.issued_per_cycle::0    683406905     41.19%     41.19% # Number of insts issued each cycle
system.switch_cpus.iq.issued_per_cycle::1    298771589     18.01%     59.19% # Number of insts issued each cycle
system.switch_cpus.iq.issued_per_cycle::2    303990800     18.32%     77.52% # Number of insts issued each cycle
system.switch_cpus.iq.issued_per_cycle::3    149229314      8.99%     86.51% # Number of insts issued each cycle
system.switch_cpus.iq.issued_per_cycle::4    120192323      7.24%     93.75% # Number of insts issued each cycle
system.switch_cpus.iq.issued_per_cycle::5     55405114      3.34%     97.09% # Number of insts issued each cycle
system.switch_cpus.iq.issued_per_cycle::6     36005739      2.17%     99.26% # Number of insts issued each cycle
system.switch_cpus.iq.issued_per_cycle::7     11119273      0.67%     99.93% # Number of insts issued each cycle
system.switch_cpus.iq.issued_per_cycle::8      1115871      0.07%    100.00% # Number of insts issued each cycle
system.switch_cpus.iq.issued_per_cycle::overflows            0      0.00%    100.00% # Number of insts issued each cycle
system.switch_cpus.iq.issued_per_cycle::min_value            0                       # Number of insts issued each cycle
system.switch_cpus.iq.issued_per_cycle::max_value            8                       # Number of insts issued each cycle
system.switch_cpus.iq.issued_per_cycle::total   1659236928                       # Number of insts issued each cycle
system.switch_cpus.iq.fu_full::No_OpClass            0      0.00%      0.00% # attempts to use FU when none available
system.switch_cpus.iq.fu_full::IntAlu         8000323     20.97%     20.97% # attempts to use FU when none available
system.switch_cpus.iq.fu_full::IntMult              0      0.00%     20.97% # attempts to use FU when none available
system.switch_cpus.iq.fu_full::IntDiv               0      0.00%     20.97% # attempts to use FU when none available
system.switch_cpus.iq.fu_full::FloatAdd             0      0.00%     20.97% # attempts to use FU when none available
system.switch_cpus.iq.fu_full::FloatCmp             0      0.00%     20.97% # attempts to use FU when none available
system.switch_cpus.iq.fu_full::FloatCvt             0      0.00%     20.97% # attempts to use FU when none available
system.switch_cpus.iq.fu_full::FloatMult            0      0.00%     20.97% # attempts to use FU when none available
system.switch_cpus.iq.fu_full::FloatDiv             0      0.00%     20.97% # attempts to use FU when none available
system.switch_cpus.iq.fu_full::FloatSqrt            0      0.00%     20.97% # attempts to use FU when none available
system.switch_cpus.iq.fu_full::SimdAdd              0      0.00%     20.97% # attempts to use FU when none available
system.switch_cpus.iq.fu_full::SimdAddAcc            0      0.00%     20.97% # attempts to use FU when none available
system.switch_cpus.iq.fu_full::SimdAlu              0      0.00%     20.97% # attempts to use FU when none available
system.switch_cpus.iq.fu_full::SimdCmp              0      0.00%     20.97% # attempts to use FU when none available
system.switch_cpus.iq.fu_full::SimdCvt              0      0.00%     20.97% # attempts to use FU when none available
system.switch_cpus.iq.fu_full::SimdMisc             0      0.00%     20.97% # attempts to use FU when none available
system.switch_cpus.iq.fu_full::SimdMult             0      0.00%     20.97% # attempts to use FU when none available
system.switch_cpus.iq.fu_full::SimdMultAcc            0      0.00%     20.97% # attempts to use FU when none available
system.switch_cpus.iq.fu_full::SimdShift            0      0.00%     20.97% # attempts to use FU when none available
system.switch_cpus.iq.fu_full::SimdShiftAcc            0      0.00%     20.97% # attempts to use FU when none available
system.switch_cpus.iq.fu_full::SimdSqrt             0      0.00%     20.97% # attempts to use FU when none available
system.switch_cpus.iq.fu_full::SimdFloatAdd            0      0.00%     20.97% # attempts to use FU when none available
system.switch_cpus.iq.fu_full::SimdFloatAlu            0      0.00%     20.97% # attempts to use FU when none available
system.switch_cpus.iq.fu_full::SimdFloatCmp            0      0.00%     20.97% # attempts to use FU when none available
system.switch_cpus.iq.fu_full::SimdFloatCvt            0      0.00%     20.97% # attempts to use FU when none available
system.switch_cpus.iq.fu_full::SimdFloatDiv            0      0.00%     20.97% # attempts to use FU when none available
system.switch_cpus.iq.fu_full::SimdFloatMisc            0      0.00%     20.97% # attempts to use FU when none available
system.switch_cpus.iq.fu_full::SimdFloatMult            0      0.00%     20.97% # attempts to use FU when none available
system.switch_cpus.iq.fu_full::SimdFloatMultAcc            0      0.00%     20.97% # attempts to use FU when none available
system.switch_cpus.iq.fu_full::SimdFloatSqrt            0      0.00%     20.97% # attempts to use FU when none available
system.switch_cpus.iq.fu_full::MemRead       19017616     49.86%     70.83% # attempts to use FU when none available
system.switch_cpus.iq.fu_full::MemWrite      11125464     29.17%    100.00% # attempts to use FU when none available
system.switch_cpus.iq.fu_full::IprAccess            0      0.00%    100.00% # attempts to use FU when none available
system.switch_cpus.iq.fu_full::InstPrefetch            0      0.00%    100.00% # attempts to use FU when none available
system.switch_cpus.iq.FU_type_0::No_OpClass      1763554      0.07%      0.07% # Type of FU issued
system.switch_cpus.iq.FU_type_0::IntAlu    1608907066     66.62%     66.69% # Type of FU issued
system.switch_cpus.iq.FU_type_0::IntMult      1047885      0.04%     66.74% # Type of FU issued
system.switch_cpus.iq.FU_type_0::IntDiv             0      0.00%     66.74% # Type of FU issued
system.switch_cpus.iq.FU_type_0::FloatAdd      4408876      0.18%     66.92% # Type of FU issued
system.switch_cpus.iq.FU_type_0::FloatCmp            1      0.00%     66.92% # Type of FU issued
system.switch_cpus.iq.FU_type_0::FloatCvt      2645347      0.11%     67.03% # Type of FU issued
system.switch_cpus.iq.FU_type_0::FloatMult            1      0.00%     67.03% # Type of FU issued
system.switch_cpus.iq.FU_type_0::FloatDiv       881769      0.04%     67.07% # Type of FU issued
system.switch_cpus.iq.FU_type_0::FloatSqrt            0      0.00%     67.07% # Type of FU issued
system.switch_cpus.iq.FU_type_0::SimdAdd            0      0.00%     67.07% # Type of FU issued
system.switch_cpus.iq.FU_type_0::SimdAddAcc            0      0.00%     67.07% # Type of FU issued
system.switch_cpus.iq.FU_type_0::SimdAlu            0      0.00%     67.07% # Type of FU issued
system.switch_cpus.iq.FU_type_0::SimdCmp            0      0.00%     67.07% # Type of FU issued
system.switch_cpus.iq.FU_type_0::SimdCvt            0      0.00%     67.07% # Type of FU issued
system.switch_cpus.iq.FU_type_0::SimdMisc            0      0.00%     67.07% # Type of FU issued
system.switch_cpus.iq.FU_type_0::SimdMult            0      0.00%     67.07% # Type of FU issued
system.switch_cpus.iq.FU_type_0::SimdMultAcc            0      0.00%     67.07% # Type of FU issued
system.switch_cpus.iq.FU_type_0::SimdShift            0      0.00%     67.07% # Type of FU issued
system.switch_cpus.iq.FU_type_0::SimdShiftAcc            0      0.00%     67.07% # Type of FU issued
system.switch_cpus.iq.FU_type_0::SimdSqrt            0      0.00%     67.07% # Type of FU issued
system.switch_cpus.iq.FU_type_0::SimdFloatAdd            0      0.00%     67.07% # Type of FU issued
system.switch_cpus.iq.FU_type_0::SimdFloatAlu            0      0.00%     67.07% # Type of FU issued
system.switch_cpus.iq.FU_type_0::SimdFloatCmp            0      0.00%     67.07% # Type of FU issued
system.switch_cpus.iq.FU_type_0::SimdFloatCvt            0      0.00%     67.07% # Type of FU issued
system.switch_cpus.iq.FU_type_0::SimdFloatDiv            0      0.00%     67.07% # Type of FU issued
system.switch_cpus.iq.FU_type_0::SimdFloatMisc            0      0.00%     67.07% # Type of FU issued
system.switch_cpus.iq.FU_type_0::SimdFloatMult            0      0.00%     67.07% # Type of FU issued
system.switch_cpus.iq.FU_type_0::SimdFloatMultAcc            0      0.00%     67.07% # Type of FU issued
system.switch_cpus.iq.FU_type_0::SimdFloatSqrt            0      0.00%     67.07% # Type of FU issued
system.switch_cpus.iq.FU_type_0::MemRead    612720805     25.37%     92.44% # Type of FU issued
system.switch_cpus.iq.FU_type_0::MemWrite    182657002      7.56%    100.00% # Type of FU issued
system.switch_cpus.iq.FU_type_0::IprAccess            0      0.00%    100.00% # Type of FU issued
system.switch_cpus.iq.FU_type_0::InstPrefetch            0      0.00%    100.00% # Type of FU issued
system.switch_cpus.iq.FU_type_0::total     2415032306                       # Type of FU issued
system.switch_cpus.iq.rate                   1.414502                       # Inst issue rate
system.switch_cpus.iq.fu_busy_cnt            38143403                       # FU busy when requested
system.switch_cpus.iq.fu_busy_rate           0.015794                       # FU busy rate (busy events/executed inst)
system.switch_cpus.iq.int_inst_queue_reads   6505621475                       # Number of integer instruction queue reads
system.switch_cpus.iq.int_inst_queue_writes   3298519643                       # Number of integer instruction queue writes
system.switch_cpus.iq.int_inst_queue_wakeup_accesses   2308304533                       # Number of integer instruction queue wakeup accesses
system.switch_cpus.iq.fp_inst_queue_reads     26985318                       # Number of floating instruction queue reads
system.switch_cpus.iq.fp_inst_queue_writes     13474941                       # Number of floating instruction queue writes
system.switch_cpus.iq.fp_inst_queue_wakeup_accesses     13285100                       # Number of floating instruction queue wakeup accesses
system.switch_cpus.iq.int_alu_accesses     2437768698                       # Number of integer alu accesses
system.switch_cpus.iq.fp_alu_accesses        13643457                       # Number of floating point alu accesses
system.switch_cpus.iew.lsq.thread0.forwLoads      9616701                       # Number of loads that had data forwarded from stores
system.switch_cpus.iew.lsq.thread0.invAddrLoads            0                       # Number of loads ignored due to an invalid address
system.switch_cpus.iew.lsq.thread0.squashedLoads    165398453                       # Number of loads squashed
system.switch_cpus.iew.lsq.thread0.ignoredResponses       120158                       # Number of memory responses ignored because the instruction is squashed
system.switch_cpus.iew.lsq.thread0.memOrderViolation        69374                       # Number of memory ordering violations
system.switch_cpus.iew.lsq.thread0.squashedStores     34617985                       # Number of stores squashed
system.switch_cpus.iew.lsq.thread0.invAddrSwpfs            0                       # Number of software prefetches ignored due to an invalid address
system.switch_cpus.iew.lsq.thread0.blockedLoads            0                       # Number of blocked loads due to partial load-store forwarding
system.switch_cpus.iew.lsq.thread0.rescheduledLoads          123                       # Number of loads that were rescheduled
system.switch_cpus.iew.lsq.thread0.cacheBlocked          624                       # Number of times an access to memory failed due to the cache being blocked
system.switch_cpus.iew.iewIdleCycles                0                       # Number of cycles IEW is idle
system.switch_cpus.iew.iewSquashCycles       98972519                       # Number of cycles IEW is squashing
system.switch_cpus.iew.iewBlockCycles         9536350                       # Number of cycles IEW is blocking
system.switch_cpus.iew.iewUnblockCycles        285541                       # Number of cycles IEW is unblocking
system.switch_cpus.iew.iewDispatchedInsts   2704982874                       # Number of instructions dispatched to IQ
system.switch_cpus.iew.iewDispSquashedInsts     22303755                       # Number of squashed instructions skipped by dispatch
system.switch_cpus.iew.iewDispLoadInsts     653379919                       # Number of dispatched load instructions
system.switch_cpus.iew.iewDispStoreInsts    192889685                       # Number of dispatched store instructions
system.switch_cpus.iew.iewDispNonSpecInsts          124                       # Number of dispatched non-speculative instructions
system.switch_cpus.iew.iewIQFullEvents          25578                       # Number of times the IQ has become full, causing a stall
system.switch_cpus.iew.iewLSQFullEvents         34736                       # Number of times the LSQ has become full, causing a stall
system.switch_cpus.iew.memOrderViolationEvents        69374                       # Number of memory order violations
system.switch_cpus.iew.predictedTakenIncorrect     22357287                       # Number of branches that were predicted taken incorrectly
system.switch_cpus.iew.predictedNotTakenIncorrect     17063470                       # Number of branches that were predicted not taken incorrectly
system.switch_cpus.iew.branchMispredicts     39420757                       # Number of branch mispredicts detected at execute
system.switch_cpus.iew.iewExecutedInsts    2370194064                       # Number of executed instructions
system.switch_cpus.iew.iewExecLoadInsts     592683659                       # Number of load instructions executed
system.switch_cpus.iew.iewExecSquashedInsts     44838240                       # Number of squashed instructions skipped in execute
system.switch_cpus.iew.exec_swp                     0                       # number of swp insts executed
system.switch_cpus.iew.exec_nop              39699821                       # number of nop insts executed
system.switch_cpus.iew.exec_refs            771899765                       # number of memory reference insts executed
system.switch_cpus.iew.exec_branches        410273233                       # Number of branches executed
system.switch_cpus.iew.exec_stores          179216106                       # Number of stores executed
system.switch_cpus.iew.exec_rate             1.388240                       # Inst execution rate
system.switch_cpus.iew.wb_sent             2334868603                       # cumulative count of insts sent to commit
system.switch_cpus.iew.wb_count            2321589633                       # cumulative count of insts written-back
system.switch_cpus.iew.wb_producers        1418196199                       # num instructions producing a value
system.switch_cpus.iew.wb_consumers        1784252078                       # num instructions consuming a value
system.switch_cpus.iew.wb_penalized                 0                       # number of instrctions required to write to 'other' IQ
system.switch_cpus.iew.wb_rate               1.359772                       # insts written-back per cycle
system.switch_cpus.iew.wb_fanout             0.794841                       # average fanout of values written-back
system.switch_cpus.iew.wb_penalized_rate            0                       # fraction of instructions written-back that wrote to 'other' IQ
system.switch_cpus.commit.commitSquashedInsts    639573969                       # The number of squashed insts skipped by commit
system.switch_cpus.commit.commitNonSpecStalls           75                       # The number of times commit has been forced to stall to communicate backwards
system.switch_cpus.commit.branchMispredicts     34258230                       # The number of times a branch was mispredicted
system.switch_cpus.commit.committed_per_cycle::samples   1560264409                       # Number of insts commited each cycle
system.switch_cpus.commit.committed_per_cycle::mean     1.301143                       # Number of insts commited each cycle
system.switch_cpus.commit.committed_per_cycle::stdev     2.129415                       # Number of insts commited each cycle
system.switch_cpus.commit.committed_per_cycle::underflows            0      0.00%      0.00% # Number of insts commited each cycle
system.switch_cpus.commit.committed_per_cycle::0    852498035     54.64%     54.64% # Number of insts commited each cycle
system.switch_cpus.commit.committed_per_cycle::1    311333673     19.95%     74.59% # Number of insts commited each cycle
system.switch_cpus.commit.committed_per_cycle::2    125790618      8.06%     82.65% # Number of insts commited each cycle
system.switch_cpus.commit.committed_per_cycle::3     54613150      3.50%     86.15% # Number of insts commited each cycle
system.switch_cpus.commit.committed_per_cycle::4     52588367      3.37%     89.52% # Number of insts commited each cycle
system.switch_cpus.commit.committed_per_cycle::5     44674245      2.86%     92.39% # Number of insts commited each cycle
system.switch_cpus.commit.committed_per_cycle::6     29133903      1.87%     94.26% # Number of insts commited each cycle
system.switch_cpus.commit.committed_per_cycle::7     22214482      1.42%     95.68% # Number of insts commited each cycle
system.switch_cpus.commit.committed_per_cycle::8     67417936      4.32%    100.00% # Number of insts commited each cycle
system.switch_cpus.commit.committed_per_cycle::overflows            0      0.00%    100.00% # Number of insts commited each cycle
system.switch_cpus.commit.committed_per_cycle::min_value            0                       # Number of insts commited each cycle
system.switch_cpus.commit.committed_per_cycle::max_value            8                       # Number of insts commited each cycle
system.switch_cpus.commit.committed_per_cycle::total   1560264409                       # Number of insts commited each cycle
system.switch_cpus.commit.committedInsts   2030127332                       # Number of instructions committed
system.switch_cpus.commit.committedOps     2030127332                       # Number of ops (including micro ops) committed
system.switch_cpus.commit.swp_count                 0                       # Number of s/w prefetches committed
system.switch_cpus.commit.refs              646253159                       # Number of memory references committed
system.switch_cpus.commit.loads             487981459                       # Number of loads committed
system.switch_cpus.commit.membars                  30                       # Number of memory barriers committed
system.switch_cpus.commit.branches          355694384                       # Number of branches committed
system.switch_cpus.commit.fp_insts           13226860                       # Number of committed floating point instructions.
system.switch_cpus.commit.int_insts        1972407282                       # Number of committed integer instructions.
system.switch_cpus.commit.function_calls     16638159                       # Number of function calls committed.
system.switch_cpus.commit.bw_lim_events      67417936                       # number cycles where commit BW limit reached
system.switch_cpus.commit.bw_limited                0                       # number of insts not committed due to BW limits
system.switch_cpus.rob.rob_reads           4143523782                       # The number of ROB reads
system.switch_cpus.rob.rob_writes          5438955453                       # The number of ROB writes
system.switch_cpus.timesIdled                  276244                       # Number of times that the entire CPU went into an idle state and unscheduled itself
system.switch_cpus.idleCycles                48100855                       # Total number of cycles that the CPU has spent unscheduled due to idling
system.switch_cpus.committedInsts          2000000000                       # Number of Instructions Simulated
system.switch_cpus.committedOps            2000000000                       # Number of Ops (including micro ops) Simulated
system.switch_cpus.committedInsts_total    2000000000                       # Number of Instructions Simulated
system.switch_cpus.cpi                       0.853669                       # CPI: Cycles Per Instruction
system.switch_cpus.cpi_total                 0.853669                       # CPI: Total CPI of All Threads
system.switch_cpus.ipc                       1.171414                       # IPC: Instructions Per Cycle
system.switch_cpus.ipc_total                 1.171414                       # IPC: Total IPC of All Threads
system.switch_cpus.int_regfile_reads       3078114844                       # number of integer regfile reads
system.switch_cpus.int_regfile_writes      1752593046                       # number of integer regfile writes
system.switch_cpus.fp_regfile_reads           8922233                       # number of floating regfile reads
system.switch_cpus.fp_regfile_writes          8817729                       # number of floating regfile writes
system.switch_cpus.misc_regfile_reads         1764011                       # number of misc regfile reads
system.switch_cpus.misc_regfile_writes         881828                       # number of misc regfile writes
system.l2.tags.numFaultyBlocks_VDD1              1141                       # number of faulty blocks in the cache at VDD1 (lowest)
system.l2.tags.numFaultyBlocks_VDD2              1141                       # number of faulty blocks in the cache at VDD2 (mid)
system.l2.tags.numFaultyBlocks_VDD3                 0                       # number of faulty blocks in the cache at VDD3 (highest)
system.l2.tags.blockFaultRate_VDD1           0.008705                       # Proportion of faulty blocks in the cache at VDD1
system.l2.tags.blockFaultRate_VDD2           0.008705                       # Proportion of faulty blocks in the cache at VDD2
system.l2.tags.blockFaultRate_VDD3                  0                       # Proportion of faulty blocks in the cache at VDD3
system.l2.tags.cycles_VDD1                          0                       # Total number of cycles spent on VDD1
system.l2.tags.cycles_VDD2                 2707991457                       # Total number of cycles spent on VDD2
system.l2.tags.cycles_VDD3                          0                       # Total number of cycles spent on VDD3
system.l2.tags.accessEnergy_VDD1                    0                       # Total dynamic energy dissipated at VDD1 in nJ
system.l2.tags.accessEnergy_VDD2         387402.960007                       # Total dynamic energy dissipated at VDD2 in nJ
system.l2.tags.accessEnergy_VDD3                    0                       # Total dynamic energy dissipated at VDD3 in nJ
system.l2.tags.accessEnergy_tot          387402.960007                       # Total dynamic energy dissipated in nJ
system.l2.tags.transitionsTo_VDD1                   0                       # Total number of transitions to VDD1
system.l2.tags.transitionsTo_VDD2                   0                       # Total number of transitions to VDD2
system.l2.tags.transitionsTo_VDD3                   0                       # Total number of transitions to VDD3
system.l2.tags.avgConsecutiveCycles_VDD1          nan                       # Average number of consecutive cycles spent at VDD1
system.l2.tags.avgConsecutiveCycles_VDD2          inf                       # Average number of consecutive cycles spent at VDD2
system.l2.tags.avgConsecutiveCycles_VDD3          nan                       # Average number of consecutive cycles spent at VDD3
system.l2.tags.proportionExecTime_VDD1              0                       # Proportion of total execution time that was spent at VDD1 for this cache
system.l2.tags.proportionExecTime_VDD2              1                       # Proportion of total execution time that was spent at VDD2 for this cache
system.l2.tags.proportionExecTime_VDD3              0                       # Proportion of total execution time that was spent at VDD3 for this cache
system.l2.tags.staticPower_avg            8751.172680                       # Average static power of this cache over the entire execution
system.l2.tags.numUnchangedFaultyTo_VDD1            0                       # Total number of unchanged (faulty) blocks during DPCS transition to VDD1
system.l2.tags.numUnchangedFaultyTo_VDD2            0                       # Total number of unchanged (faulty) blocks during DPCS transition to VDD2
system.l2.tags.numUnchangedFaultyTo_VDD3            0                       # Total number of unchanged (faulty) blocks during DPCS transition to VDD3
system.l2.tags.numFaultyWriteBacksTo_VDD1            0                       # Total number of faulty writebacks during DPCS transition to VDD1
system.l2.tags.numFaultyWriteBacksTo_VDD2            0                       # Total number of faulty writebacks during DPCS transition to VDD2
system.l2.tags.numFaultyWriteBacksTo_VDD3            0                       # Total number of faulty writebacks during DPCS transition to VDD3
system.l2.tags.numInvalidateOnlyTo_VDD1             0                       # Total number of blocks only invalidated during DPCS transition to VDD1
system.l2.tags.numInvalidateOnlyTo_VDD2             0                       # Total number of blocks only invalidated during DPCS transition to VDD2
system.l2.tags.numInvalidateOnlyTo_VDD3             0                       # Total number of blocks only invalidated during DPCS transition to VDD3
system.l2.tags.numMadeAvailableTo_VDD1              0                       # Total number of blocks made available (faulty to non-faulty) during DPCS transition to VDD1
system.l2.tags.numMadeAvailableTo_VDD2              0                       # Total number of blocks made available (faulty to non-faulty) during DPCS transition to VDD2
system.l2.tags.numMadeAvailableTo_VDD3              0                       # Total number of blocks made available (faulty to non-faulty) during DPCS transition to VDD3
system.l2.tags.numUnchangedNotFaultyTo_VDD1            0                       # Total number of blocks unchanged (not faulty) during DPCS transition to VDD1
system.l2.tags.numUnchangedNotFaultyTo_VDD2            0                       # Total number of blocks unchanged (not faulty) during DPCS transition to VDD2
system.l2.tags.numUnchangedNotFaultyTo_VDD3            0                       # Total number of blocks unchanged (not faulty) during DPCS transition to VDD3
system.l2.tags.faultyWriteBackRateTo_VDD1          nan                       # Average number of writebacks caused by faulty blocks when changing to VDD1
system.l2.tags.faultyWriteBackRateTo_VDD2          nan                       # Average number of writebacks caused by faulty blocks when changing to VDD2
system.l2.tags.faultyWriteBackRateTo_VDD3          nan                       # Average number of writebacks caused by faulty blocks when changing to VDD3
system.l2.tags.replacements                    442409                       # number of replacements
system.l2.tags.tagsinuse                 129563.302536                       # Cycle average of tags in use
system.l2.tags.total_refs                      848119                       # Total number of references to valid blocks.
system.l2.tags.sampled_refs                    572077                       # Sample count of references to valid blocks.
system.l2.tags.avg_refs                      1.482526                       # Average number of references to valid blocks.
system.l2.tags.warmup_cycle                         0                       # Cycle when the warmup percentage was hit.
system.l2.tags.occ_blocks::writebacks    11860.163974                       # Average occupied blocks per requestor
system.l2.tags.occ_blocks::switch_cpus.inst    31.724894                       # Average occupied blocks per requestor
system.l2.tags.occ_blocks::switch_cpus.data 97231.097465                       # Average occupied blocks per requestor
system.l2.tags.occ_blocks::cpu.inst          2.846324                       # Average occupied blocks per requestor
system.l2.tags.occ_blocks::cpu.data      20437.469879                       # Average occupied blocks per requestor
system.l2.tags.occ_percent::writebacks       0.090486                       # Average percentage of cache occupancy
system.l2.tags.occ_percent::switch_cpus.inst     0.000242                       # Average percentage of cache occupancy
system.l2.tags.occ_percent::switch_cpus.data     0.741814                       # Average percentage of cache occupancy
system.l2.tags.occ_percent::cpu.inst         0.000022                       # Average percentage of cache occupancy
system.l2.tags.occ_percent::cpu.data         0.155926                       # Average percentage of cache occupancy
system.l2.tags.occ_percent::total            0.988490                       # Average percentage of cache occupancy
system.l2.ReadReq_hits::switch_cpus.data       147913                       # number of ReadReq hits
system.l2.ReadReq_hits::total                  147913                       # number of ReadReq hits
system.l2.Writeback_hits::writebacks           521212                       # number of Writeback hits
system.l2.Writeback_hits::total                521212                       # number of Writeback hits
system.l2.ReadExReq_hits::switch_cpus.data        41529                       # number of ReadExReq hits
system.l2.ReadExReq_hits::total                 41529                       # number of ReadExReq hits
system.l2.demand_hits::switch_cpus.data        189442                       # number of demand (read+write) hits
system.l2.demand_hits::total                   189442                       # number of demand (read+write) hits
system.l2.overall_hits::switch_cpus.data       189442                       # number of overall hits
system.l2.overall_hits::total                  189442                       # number of overall hits
system.l2.ReadReq_misses::switch_cpus.inst          119                       # number of ReadReq misses
system.l2.ReadReq_misses::switch_cpus.data       416374                       # number of ReadReq misses
system.l2.ReadReq_misses::total                416493                       # number of ReadReq misses
system.l2.ReadExReq_misses::switch_cpus.data        25838                       # number of ReadExReq misses
system.l2.ReadExReq_misses::total               25838                       # number of ReadExReq misses
system.l2.demand_misses::switch_cpus.inst          119                       # number of demand (read+write) misses
system.l2.demand_misses::switch_cpus.data       442212                       # number of demand (read+write) misses
system.l2.demand_misses::total                 442331                       # number of demand (read+write) misses
system.l2.overall_misses::switch_cpus.inst          119                       # number of overall misses
system.l2.overall_misses::switch_cpus.data       442212                       # number of overall misses
system.l2.overall_misses::total                442331                       # number of overall misses
system.l2.ReadReq_miss_latency::switch_cpus.inst     16386240                       # number of ReadReq miss cycles
system.l2.ReadReq_miss_latency::switch_cpus.data  37636111589                       # number of ReadReq miss cycles
system.l2.ReadReq_miss_latency::total     37652497829                       # number of ReadReq miss cycles
system.l2.ReadExReq_miss_latency::switch_cpus.data   1722555603                       # number of ReadExReq miss cycles
system.l2.ReadExReq_miss_latency::total    1722555603                       # number of ReadExReq miss cycles
system.l2.demand_miss_latency::switch_cpus.inst     16386240                       # number of demand (read+write) miss cycles
system.l2.demand_miss_latency::switch_cpus.data  39358667192                       # number of demand (read+write) miss cycles
system.l2.demand_miss_latency::total      39375053432                       # number of demand (read+write) miss cycles
system.l2.overall_miss_latency::switch_cpus.inst     16386240                       # number of overall miss cycles
system.l2.overall_miss_latency::switch_cpus.data  39358667192                       # number of overall miss cycles
system.l2.overall_miss_latency::total     39375053432                       # number of overall miss cycles
system.l2.ReadReq_accesses::switch_cpus.inst          119                       # number of ReadReq accesses(hits+misses)
system.l2.ReadReq_accesses::switch_cpus.data       564287                       # number of ReadReq accesses(hits+misses)
system.l2.ReadReq_accesses::total              564406                       # number of ReadReq accesses(hits+misses)
system.l2.Writeback_accesses::writebacks       521212                       # number of Writeback accesses(hits+misses)
system.l2.Writeback_accesses::total            521212                       # number of Writeback accesses(hits+misses)
system.l2.ReadExReq_accesses::switch_cpus.data        67367                       # number of ReadExReq accesses(hits+misses)
system.l2.ReadExReq_accesses::total             67367                       # number of ReadExReq accesses(hits+misses)
system.l2.demand_accesses::switch_cpus.inst          119                       # number of demand (read+write) accesses
system.l2.demand_accesses::switch_cpus.data       631654                       # number of demand (read+write) accesses
system.l2.demand_accesses::total               631773                       # number of demand (read+write) accesses
system.l2.overall_accesses::switch_cpus.inst          119                       # number of overall (read+write) accesses
system.l2.overall_accesses::switch_cpus.data       631654                       # number of overall (read+write) accesses
system.l2.overall_accesses::total              631773                       # number of overall (read+write) accesses
system.l2.ReadReq_miss_rate::switch_cpus.inst            1                       # miss rate for ReadReq accesses
system.l2.ReadReq_miss_rate::switch_cpus.data     0.737876                       # miss rate for ReadReq accesses
system.l2.ReadReq_miss_rate::total           0.737932                       # miss rate for ReadReq accesses
system.l2.ReadExReq_miss_rate::switch_cpus.data     0.383541                       # miss rate for ReadExReq accesses
system.l2.ReadExReq_miss_rate::total         0.383541                       # miss rate for ReadExReq accesses
system.l2.demand_miss_rate::switch_cpus.inst            1                       # miss rate for demand accesses
system.l2.demand_miss_rate::switch_cpus.data     0.700086                       # miss rate for demand accesses
system.l2.demand_miss_rate::total            0.700142                       # miss rate for demand accesses
system.l2.overall_miss_rate::switch_cpus.inst            1                       # miss rate for overall accesses
system.l2.overall_miss_rate::switch_cpus.data     0.700086                       # miss rate for overall accesses
system.l2.overall_miss_rate::total           0.700142                       # miss rate for overall accesses
system.l2.ReadReq_avg_miss_latency::switch_cpus.inst 137699.495798                       # average ReadReq miss latency
system.l2.ReadReq_avg_miss_latency::switch_cpus.data 90390.157860                       # average ReadReq miss latency
system.l2.ReadReq_avg_miss_latency::total 90403.675041                       # average ReadReq miss latency
system.l2.ReadExReq_avg_miss_latency::switch_cpus.data 66667.528563                       # average ReadExReq miss latency
system.l2.ReadExReq_avg_miss_latency::total 66667.528563                       # average ReadExReq miss latency
system.l2.demand_avg_miss_latency::switch_cpus.inst 137699.495798                       # average overall miss latency
system.l2.demand_avg_miss_latency::switch_cpus.data 89004.068619                       # average overall miss latency
system.l2.demand_avg_miss_latency::total 89017.169115                       # average overall miss latency
system.l2.overall_avg_miss_latency::switch_cpus.inst 137699.495798                       # average overall miss latency
system.l2.overall_avg_miss_latency::switch_cpus.data 89004.068619                       # average overall miss latency
system.l2.overall_avg_miss_latency::total 89017.169115                       # average overall miss latency
system.l2.blocked_cycles::no_mshrs                  0                       # number of cycles access was blocked
system.l2.blocked_cycles::no_targets                0                       # number of cycles access was blocked
system.l2.blocked::no_mshrs                         0                       # number of cycles access was blocked
system.l2.blocked::no_targets                       0                       # number of cycles access was blocked
system.l2.avg_blocked_cycles::no_mshrs            nan                       # average number of cycles each access was blocked
system.l2.avg_blocked_cycles::no_targets          nan                       # average number of cycles each access was blocked
system.l2.fast_writes                               0                       # number of fast writes performed
system.l2.cache_copies                              0                       # number of cache copies performed
system.l2.writebacks::writebacks               371829                       # number of writebacks
system.l2.writebacks::total                    371829                       # number of writebacks
system.l2.ReadReq_mshr_misses::switch_cpus.inst          119                       # number of ReadReq MSHR misses
system.l2.ReadReq_mshr_misses::switch_cpus.data       416374                       # number of ReadReq MSHR misses
system.l2.ReadReq_mshr_misses::total           416493                       # number of ReadReq MSHR misses
system.l2.ReadExReq_mshr_misses::switch_cpus.data        25838                       # number of ReadExReq MSHR misses
system.l2.ReadExReq_mshr_misses::total          25838                       # number of ReadExReq MSHR misses
system.l2.demand_mshr_misses::switch_cpus.inst          119                       # number of demand (read+write) MSHR misses
system.l2.demand_mshr_misses::switch_cpus.data       442212                       # number of demand (read+write) MSHR misses
system.l2.demand_mshr_misses::total            442331                       # number of demand (read+write) MSHR misses
system.l2.overall_mshr_misses::switch_cpus.inst          119                       # number of overall MSHR misses
system.l2.overall_mshr_misses::switch_cpus.data       442212                       # number of overall MSHR misses
system.l2.overall_mshr_misses::total           442331                       # number of overall MSHR misses
system.l2.ReadReq_mshr_miss_latency::switch_cpus.inst     15494514                       # number of ReadReq MSHR miss cycles
system.l2.ReadReq_mshr_miss_latency::switch_cpus.data  34563926101                       # number of ReadReq MSHR miss cycles
system.l2.ReadReq_mshr_miss_latency::total  34579420615                       # number of ReadReq MSHR miss cycles
system.l2.ReadExReq_mshr_miss_latency::switch_cpus.data   1526842413                       # number of ReadExReq MSHR miss cycles
system.l2.ReadExReq_mshr_miss_latency::total   1526842413                       # number of ReadExReq MSHR miss cycles
system.l2.demand_mshr_miss_latency::switch_cpus.inst     15494514                       # number of demand (read+write) MSHR miss cycles
system.l2.demand_mshr_miss_latency::switch_cpus.data  36090768514                       # number of demand (read+write) MSHR miss cycles
system.l2.demand_mshr_miss_latency::total  36106263028                       # number of demand (read+write) MSHR miss cycles
system.l2.overall_mshr_miss_latency::switch_cpus.inst     15494514                       # number of overall MSHR miss cycles
system.l2.overall_mshr_miss_latency::switch_cpus.data  36090768514                       # number of overall MSHR miss cycles
system.l2.overall_mshr_miss_latency::total  36106263028                       # number of overall MSHR miss cycles
[...]
system.cpu.dcache.tags.accessEnergy_tot  40093081.170493                       # Total dynamic energy dissipated in nJ
system.cpu.dcache.tags.transitionsTo_VDD1            0                       # Total number of transitions to VDD1
system.cpu.dcache.tags.transitionsTo_VDD2            0                       # Total number of transitions to VDD2
system.cpu.dcache.tags.transitionsTo_VDD3            0                       # Total number of transitions to VDD3
system.cpu.dcache.tags.avgConsecutiveCycles_VDD1          nan                       # Average number of consecutive cycles spent at VDD1
system.cpu.dcache.tags.avgConsecutiveCycles_VDD2          inf                       # Average number of consecutive cycles spent at VDD2
system.cpu.dcache.tags.avgConsecutiveCycles_VDD3          nan                       # Average number of consecutive cycles spent at VDD3
system.cpu.dcache.tags.proportionExecTime_VDD1            0                       # Proportion of total execution time that was spent at VDD1 for this cache
system.cpu.dcache.tags.proportionExecTime_VDD2            1                       # Proportion of total execution time that was spent at VDD2 for this cache
system.cpu.dcache.tags.proportionExecTime_VDD3            0                       # Proportion of total execution time that was spent at VDD3 for this cache
system.cpu.dcache.tags.staticPower_avg     333.713930                       # Average static power of this cache over the entire execution
system.cpu.dcache.tags.numUnchangedFaultyTo_VDD1            0                       # Total number of unchanged (faulty) blocks during DPCS transition to VDD1
system.cpu.dcache.tags.numUnchangedFaultyTo_VDD2            0                       # Total number of unchanged (faulty) blocks during DPCS transition to VDD2
system.cpu.dcache.tags.numUnchangedFaultyTo_VDD3            0                       # Total number of unchanged (faulty) blocks during DPCS transition to VDD3
system.cpu.dcache.tags.numFaultyWriteBacksTo_VDD1            0                       # Total number of faulty writebacks during DPCS transition to VDD1
system.cpu.dcache.tags.numFaultyWriteBacksTo_VDD2            0                       # Total number of faulty writebacks during DPCS transition to VDD2
system.cpu.dcache.tags.numFaultyWriteBacksTo_VDD3            0                       # Total number of faulty writebacks during DPCS transition to VDD3
system.cpu.dcache.tags.numInvalidateOnlyTo_VDD1            0                       # Total number of blocks only invalidated during DPCS transition to VDD1
system.cpu.dcache.tags.numInvalidateOnlyTo_VDD2            0                       # Total number of blocks only invalidated during DPCS transition to VDD2
system.cpu.dcache.tags.numInvalidateOnlyTo_VDD3            0                       # Total number of blocks only invalidated during DPCS transition to VDD3
system.cpu.dcache.tags.numMadeAvailableTo_VDD1            0                       # Total number of blocks made available (faulty to non-faulty) during DPCS transition to VDD1
system.cpu.dcache.tags.numMadeAvailableTo_VDD2            0                       # Total number of blocks made available (faulty to non-faulty) during DPCS transition to VDD2
system.cpu.dcache.tags.numMadeAvailableTo_VDD3            0                       # Total number of blocks made available (faulty to non-faulty) during DPCS transition to VDD3
system.cpu.dcache.tags.numUnchangedNotFaultyTo_VDD1            0                       # Total number of blocks unchanged (not faulty) during DPCS transition to VDD1
system.cpu.dcache.tags.numUnchangedNotFaultyTo_VDD2            0                       # Total number of blocks unchanged (not faulty) during DPCS transition to VDD2
system.cpu.dcache.tags.numUnchangedNotFaultyTo_VDD3            0                       # Total number of blocks unchanged (not faulty) during DPCS transition to VDD3
system.cpu.dcache.tags.faultyWriteBackRateTo_VDD1          nan                       # Average number of writebacks caused by faulty blocks when changing to VDD1
system.cpu.dcache.tags.faultyWriteBackRateTo_VDD2          nan                       # Average number of writebacks caused by faulty blocks when changing to VDD2
system.cpu.dcache.tags.faultyWriteBackRateTo_VDD3          nan                       # Average number of writebacks caused by faulty blocks when changing to VDD3
system.cpu.dcache.tags.replacements            631654                       # number of replacements
system.cpu.dcache.tags.tagsinuse                 4057                       # Cycle average of tags in use
system.cpu.dcache.tags.total_refs           970695114                       # Total number of references to valid blocks.
system.cpu.dcache.tags.sampled_refs            635711                       # Sample count of references to valid blocks.
system.cpu.dcache.tags.avg_refs           1526.944026                       # Average number of references to valid blocks.
system.cpu.dcache.tags.warmup_cycle                 0                       # Cycle when the warmup percentage was hit.
system.cpu.dcache.tags.occ_blocks::switch_cpus.data  3719.062464                       # Average occupied blocks per requestor
system.cpu.dcache.tags.occ_blocks::cpu.data   337.937536                       # Average occupied blocks per requestor
system.cpu.dcache.tags.occ_percent::switch_cpus.data     0.907974                       # Average percentage of cache occupancy
system.cpu.dcache.tags.occ_percent::cpu.data     0.082504                       # Average percentage of cache occupancy
system.cpu.dcache.tags.occ_percent::total     0.990479                       # Average percentage of cache occupancy
system.cpu.dcache.ReadReq_hits::switch_cpus.data    579640916                       # number of ReadReq hits
system.cpu.dcache.ReadReq_hits::total       579640916                       # number of ReadReq hits
system.cpu.dcache.WriteReq_hits::switch_cpus.data    158082762                       # number of WriteReq hits
system.cpu.dcache.WriteReq_hits::total      158082762                       # number of WriteReq hits
system.cpu.dcache.LoadLockedReq_hits::switch_cpus.data           27                       # number of LoadLockedReq hits
system.cpu.dcache.LoadLockedReq_hits::total           27                       # number of LoadLockedReq hits
system.cpu.dcache.StoreCondReq_hits::switch_cpus.data           30                       # number of StoreCondReq hits
system.cpu.dcache.StoreCondReq_hits::total           30                       # number of StoreCondReq hits
system.cpu.dcache.demand_hits::switch_cpus.data    737723678                       # number of demand (read+write) hits
system.cpu.dcache.demand_hits::total        737723678                       # number of demand (read+write) hits
system.cpu.dcache.overall_hits::switch_cpus.data    737723678                       # number of overall hits
system.cpu.dcache.overall_hits::total       737723678                       # number of overall hits
system.cpu.dcache.ReadReq_misses::switch_cpus.data       994115                       # number of ReadReq misses
system.cpu.dcache.ReadReq_misses::total        994115                       # number of ReadReq misses
system.cpu.dcache.WriteReq_misses::switch_cpus.data       188908                       # number of WriteReq misses
system.cpu.dcache.WriteReq_misses::total       188908                       # number of WriteReq misses
system.cpu.dcache.LoadLockedReq_misses::switch_cpus.data            3                       # number of LoadLockedReq misses
system.cpu.dcache.LoadLockedReq_misses::total            3                       # number of LoadLockedReq misses
system.cpu.dcache.demand_misses::switch_cpus.data      1183023                       # number of demand (read+write) misses
system.cpu.dcache.demand_misses::total        1183023                       # number of demand (read+write) misses
system.cpu.dcache.overall_misses::switch_cpus.data      1183023                       # number of overall misses
system.cpu.dcache.overall_misses::total       1183023                       # number of overall misses
system.cpu.dcache.ReadReq_miss_latency::switch_cpus.data  62636666758                       # number of ReadReq miss cycles
system.cpu.dcache.ReadReq_miss_latency::total  62636666758                       # number of ReadReq miss cycles
system.cpu.dcache.WriteReq_miss_latency::switch_cpus.data   5349788415                       # number of WriteReq miss cycles
system.cpu.dcache.WriteReq_miss_latency::total   5349788415                       # number of WriteReq miss cycles
system.cpu.dcache.LoadLockedReq_miss_latency::switch_cpus.data        90226                       # number of LoadLockedReq miss cycles
system.cpu.dcache.LoadLockedReq_miss_latency::total        90226                       # number of LoadLockedReq miss cycles
system.cpu.dcache.demand_miss_latency::switch_cpus.data  67986455173                       # number of demand (read+write) miss cycles
system.cpu.dcache.demand_miss_latency::total  67986455173                       # number of demand (read+write) miss cycles
system.cpu.dcache.overall_miss_latency::switch_cpus.data  67986455173                       # number of overall miss cycles
system.cpu.dcache.overall_miss_latency::total  67986455173                       # number of overall miss cycles
system.cpu.dcache.ReadReq_accesses::switch_cpus.data    580635031                       # number of ReadReq accesses(hits+misses)
system.cpu.dcache.ReadReq_accesses::total    580635031                       # number of ReadReq accesses(hits+misses)
system.cpu.dcache.WriteReq_accesses::switch_cpus.data    158271670                       # number of WriteReq accesses(hits+misses)
system.cpu.dcache.WriteReq_accesses::total    158271670                       # number of WriteReq accesses(hits+misses)
system.cpu.dcache.LoadLockedReq_accesses::switch_cpus.data           30                       # number of LoadLockedReq accesses(hits+misses)
system.cpu.dcache.LoadLockedReq_accesses::total           30                       # number of LoadLockedReq accesses(hits+misses)
system.cpu.dcache.StoreCondReq_accesses::switch_cpus.data           30                       # number of StoreCondReq accesses(hits+misses)
system.cpu.dcache.StoreCondReq_accesses::total           30                       # number of StoreCondReq accesses(hits+misses)
system.cpu.dcache.demand_accesses::switch_cpus.data    738906701                       # number of demand (read+write) accesses
system.cpu.dcache.demand_accesses::total    738906701                       # number of demand (read+write) accesses
system.cpu.dcache.overall_accesses::switch_cpus.data    738906701                       # number of overall (read+write) accesses
system.cpu.dcache.overall_accesses::total    738906701                       # number of overall (read+write) accesses
system.cpu.dcache.ReadReq_miss_rate::switch_cpus.data     0.001712                       # miss rate for ReadReq accesses
system.cpu.dcache.ReadReq_miss_rate::total     0.001712                       # miss rate for ReadReq accesses
system.cpu.dcache.WriteReq_miss_rate::switch_cpus.data     0.001194                       # miss rate for WriteReq accesses
system.cpu.dcache.WriteReq_miss_rate::total     0.001194                       # miss rate for WriteReq accesses
system.cpu.dcache.LoadLockedReq_miss_rate::switch_cpus.data     0.100000                       # miss rate for LoadLockedReq accesses
system.cpu.dcache.LoadLockedReq_miss_rate::total     0.100000                       # miss rate for LoadLockedReq accesses
system.cpu.dcache.demand_miss_rate::switch_cpus.data     0.001601                       # miss rate for demand accesses
system.cpu.dcache.demand_miss_rate::total     0.001601                       # miss rate for demand accesses
system.cpu.dcache.overall_miss_rate::switch_cpus.data     0.001601                       # miss rate for overall accesses
system.cpu.dcache.overall_miss_rate::total     0.001601                       # miss rate for overall accesses
system.cpu.dcache.ReadReq_avg_miss_latency::switch_cpus.data 63007.465694                       # average ReadReq miss latency
system.cpu.dcache.ReadReq_avg_miss_latency::total 63007.465694                       # average ReadReq miss latency
system.cpu.dcache.WriteReq_avg_miss_latency::switch_cpus.data 28319.543984                       # average WriteReq miss latency
system.cpu.dcache.WriteReq_avg_miss_latency::total 28319.543984                       # average WriteReq miss latency
system.cpu.dcache.LoadLockedReq_avg_miss_latency::switch_cpus.data 30075.333333                       # average LoadLockedReq miss latency
system.cpu.dcache.LoadLockedReq_avg_miss_latency::total 30075.333333                       # average LoadLockedReq miss latency
system.cpu.dcache.demand_avg_miss_latency::switch_cpus.data 57468.413694                       # average overall miss latency
system.cpu.dcache.demand_avg_miss_latency::total 57468.413694                       # average overall miss latency
system.cpu.dcache.overall_avg_miss_latency::switch_cpus.data 57468.413694                       # average overall miss latency
system.cpu.dcache.overall_avg_miss_latency::total 57468.413694                       # average overall miss latency
system.cpu.dcache.blocked_cycles::no_mshrs        14893                       # number of cycles access was blocked
system.cpu.dcache.blocked_cycles::no_targets            0                       # number of cycles access was blocked
system.cpu.dcache.blocked::no_mshrs               520                       # number of cycles access was blocked
system.cpu.dcache.blocked::no_targets               0                       # number of cycles access was blocked
system.cpu.dcache.avg_blocked_cycles::no_mshrs    28.640385                       # average number of cycles each access was blocked
system.cpu.dcache.avg_blocked_cycles::no_targets          nan                       # average number of cycles each access was blocked
system.cpu.dcache.fast_writes                       0                       # number of fast writes performed
system.cpu.dcache.cache_copies                      0                       # number of cache copies performed
system.cpu.dcache.writebacks::writebacks       521212                       # number of writebacks
system.cpu.dcache.writebacks::total            521212                       # number of writebacks
system.cpu.dcache.ReadReq_mshr_hits::switch_cpus.data       429818                       # number of ReadReq MSHR hits
system.cpu.dcache.ReadReq_mshr_hits::total       429818                       # number of ReadReq MSHR hits
system.cpu.dcache.WriteReq_mshr_hits::switch_cpus.data       121551                       # number of WriteReq MSHR hits
system.cpu.dcache.WriteReq_mshr_hits::total       121551                       # number of WriteReq MSHR hits
system.cpu.dcache.LoadLockedReq_mshr_hits::switch_cpus.data            3                       # number of LoadLockedReq MSHR hits
system.cpu.dcache.LoadLockedReq_mshr_hits::total            3                       # number of LoadLockedReq MSHR hits
system.cpu.dcache.demand_mshr_hits::switch_cpus.data       551369                       # number of demand (read+write) MSHR hits
system.cpu.dcache.demand_mshr_hits::total       551369                       # number of demand (read+write) MSHR hits
system.cpu.dcache.overall_mshr_hits::switch_cpus.data       551369                       # number of overall MSHR hits
system.cpu.dcache.overall_mshr_hits::total       551369                       # number of overall MSHR hits
system.cpu.dcache.ReadReq_mshr_misses::switch_cpus.data       564297                       # number of ReadReq MSHR misses
system.cpu.dcache.ReadReq_mshr_misses::total       564297                       # number of ReadReq MSHR misses
system.cpu.dcache.WriteReq_mshr_misses::switch_cpus.data        67357                       # number of WriteReq MSHR misses
system.cpu.dcache.WriteReq_mshr_misses::total        67357                       # number of WriteReq MSHR misses
system.cpu.dcache.demand_mshr_misses::switch_cpus.data       631654                       # number of demand (read+write) MSHR misses
system.cpu.dcache.demand_mshr_misses::total       631654                       # number of demand (read+write) MSHR misses
system.cpu.dcache.overall_mshr_misses::switch_cpus.data       631654                       # number of overall MSHR misses
system.cpu.dcache.overall_mshr_misses::total       631654                       # number of overall MSHR misses
system.cpu.dcache.ReadReq_mshr_miss_latency::switch_cpus.data  38594903571                       # number of ReadReq MSHR miss cycles
system.cpu.dcache.ReadReq_mshr_miss_latency::total  38594903571                       # number of ReadReq MSHR miss cycles
system.cpu.dcache.WriteReq_mshr_miss_latency::switch_cpus.data   1902274456                       # number of WriteReq MSHR miss cycles
system.cpu.dcache.WriteReq_mshr_miss_latency::total   1902274456                       # number of WriteReq MSHR miss cycles
system.cpu.dcache.demand_mshr_miss_latency::switch_cpus.data  40497178027                       # number of demand (read+write) MSHR miss cycles
system.cpu.dcache.demand_mshr_miss_latency::total  40497178027                       # number of demand (read+write) MSHR miss cycles
system.cpu.dcache.overall_mshr_miss_latency::switch_cpus.data  40497178027                       # number of overall MSHR miss cycles
system.cpu.dcache.overall_mshr_miss_latency::total  40497178027                       # number of overall MSHR miss cycles
system.cpu.dcache.ReadReq_mshr_miss_rate::switch_cpus.data     0.000972                       # mshr miss rate for ReadReq accesses
system.cpu.dcache.ReadReq_mshr_miss_rate::total     0.000972                       # mshr miss rate for ReadReq accesses
system.cpu.dcache.WriteReq_mshr_miss_rate::switch_cpus.data     0.000426                       # mshr miss rate for WriteReq accesses
system.cpu.dcache.WriteReq_mshr_miss_rate::total     0.000426                       # mshr miss rate for WriteReq accesses
system.cpu.dcache.demand_mshr_miss_rate::switch_cpus.data     0.000855                       # mshr miss rate for demand accesses
system.cpu.dcache.demand_mshr_miss_rate::total     0.000855                       # mshr miss rate for demand accesses
system.cpu.dcache.overall_mshr_miss_rate::switch_cpus.data     0.000855                       # mshr miss rate for overall accesses
system.cpu.dcache.overall_mshr_miss_rate::total     0.000855                       # mshr miss rate for overall accesses
system.cpu.dcache.ReadReq_avg_mshr_miss_latency::switch_cpus.data 68394.663752                       # average ReadReq mshr miss latency
system.cpu.dcache.ReadReq_avg_mshr_miss_latency::total 68394.663752                       # average ReadReq mshr miss latency
system.cpu.dcache.WriteReq_avg_mshr_miss_latency::switch_cpus.data 28241.674303                       # average WriteReq mshr miss latency
system.cpu.dcache.WriteReq_avg_mshr_miss_latency::total 28241.674303                       # average WriteReq mshr miss latency
system.cpu.dcache.demand_avg_mshr_miss_latency::switch_cpus.data 64112.913125                       # average overall mshr miss latency
system.cpu.dcache.demand_avg_mshr_miss_latency::total 64112.913125                       # average overall mshr miss latency
system.cpu.dcache.overall_avg_mshr_miss_latency::switch_cpus.data 64112.913125                       # average overall mshr miss latency
system.cpu.dcache.overall_avg_mshr_miss_latency::total 64112.913125                       # average overall mshr miss latency
system.cpu.dcache.no_allocate_misses                0                       # Number of misses that were no-allocate

---------- End Simulation Statistics   ----------
