
---------- Begin Simulation Statistics ----------
sim_seconds                                  0.971087                       # Number of seconds simulated
sim_ticks                                971086595679                       # Number of ticks simulated
final_tick                               1304126327574                       # Number of ticks from beginning of simulation (restored from checkpoints and never reset)
sim_freq                                 1000000000000                       # Frequency of simulated ticks
host_inst_rate                                 256420                       # Simulator instruction rate (inst/s)
host_op_rate                                   256420                       # Simulator op (including micro ops) rate (op/s)
host_tick_rate                               83002028                       # Simulator tick rate (ticks/s)
host_mem_usage                                2358152                       # Number of bytes of host memory used
host_seconds                                 11699.55                       # Real time elapsed on the host
sim_insts                                  3000000001                       # Number of instructions simulated
sim_ops                                    3000000001                       # Number of ops (including micro ops) simulated
system.mem_ctrls.bytes_read::switch_cpus.inst        54016                       # Number of bytes read from this memory
system.mem_ctrls.bytes_read::switch_cpus.data   1474285248                       # Number of bytes read from this memory
system.mem_ctrls.bytes_read::total         1474339264                       # Number of bytes read from this memory
system.mem_ctrls.bytes_inst_read::switch_cpus.inst        54016                       # Number of instructions bytes read from this memory
system.mem_ctrls.bytes_inst_read::total         54016                       # Number of instructions bytes read from this memory
system.mem_ctrls.bytes_written::writebacks    347001152                       # Number of bytes written to this memory
system.mem_ctrls.bytes_written::total       347001152                       # Number of bytes written to this memory
system.mem_ctrls.num_reads::switch_cpus.inst          844                       # Number of read requests responded to by this memory
system.mem_ctrls.num_reads::switch_cpus.data     23035707                       # Number of read requests responded to by this memory
system.mem_ctrls.num_reads::total            23036551                       # Number of read requests responded to by this memory
system.mem_ctrls.num_writes::writebacks       5421893                       # Number of write requests responded to by this memory
system.mem_ctrls.num_writes::total            5421893                       # Number of write requests responded to by this memory
system.mem_ctrls.bw_read::switch_cpus.inst        55624                       # Total read bandwidth from this memory (bytes/s)
system.mem_ctrls.bw_read::switch_cpus.data   1518181030                       # Total read bandwidth from this memory (bytes/s)
system.mem_ctrls.bw_read::total            1518236654                       # Total read bandwidth from this memory (bytes/s)
system.mem_ctrls.bw_inst_read::switch_cpus.inst        55624                       # Instruction read bandwidth from this memory (bytes/s)
system.mem_ctrls.bw_inst_read::total            55624                       # Instruction read bandwidth from this memory (bytes/s)
system.mem_ctrls.bw_write::writebacks       357332862                       # Write bandwidth from this memory (bytes/s)
system.mem_ctrls.bw_write::total            357332862                       # Write bandwidth from this memory (bytes/s)
system.mem_ctrls.bw_total::writebacks       357332862                       # Total bandwidth to/from this memory (bytes/s)
system.mem_ctrls.bw_total::switch_cpus.inst        55624                       # Total bandwidth to/from this memory (bytes/s)
system.mem_ctrls.bw_total::switch_cpus.data   1518181030                       # Total bandwidth to/from this memory (bytes/s)
system.mem_ctrls.bw_total::total           1875569516                       # Total bandwidth to/from this memory (bytes/s)
system.mem_ctrls.readReqs                    23036553                       # Total number of read requests accepted by DRAM controller
system.mem_ctrls.writeReqs                    5421893                       # Total number of write requests accepted by DRAM controller
system.mem_ctrls.readBursts                  23036553                       # Total number of DRAM read bursts. Each DRAM read request translates to either one or multiple DRAM read bursts
system.mem_ctrls.writeBursts                  5421893                       # Total number of DRAM write bursts. Each DRAM write request translates to either one or multiple DRAM write bursts
system.mem_ctrls.bytesRead                 1474339264                       # Total number of bytes read from memory
system.mem_ctrls.bytesWritten               347001152                       # Total number of bytes written to memory
system.mem_ctrls.bytesConsumedRd           1474339264                       # bytesRead derated as per pkt->getSize()
system.mem_ctrls.bytesConsumedWr            347001152                       # bytesWritten derated as per pkt->getSize()
system.mem_ctrls.servicedByWrQ                    216                       # Number of DRAM read bursts serviced by write Q
system.mem_ctrls.neitherReadNorWrite                0                       # Reqs where no action is needed
system.mem_ctrls.perBankRdReqs::0             1440334                       # Track reads on a per bank basis
system.mem_ctrls.perBankRdReqs::1             1439668                       # Track reads on a per bank basis
system.mem_ctrls.perBankRdReqs::2             1440188                       # Track reads on a per bank basis
system.mem_ctrls.perBankRdReqs::3             1440163                       # Track reads on a per bank basis
system.mem_ctrls.perBankRdReqs::4             1440384                       # Track reads on a per bank basis
system.mem_ctrls.perBankRdReqs::5             1439967                       # Track reads on a per bank basis
system.mem_ctrls.perBankRdReqs::6             1440221                       # Track reads on a per bank basis
system.mem_ctrls.perBankRdReqs::7             1439834                       # Track reads on a per bank basis
system.mem_ctrls.perBankRdReqs::8             1439271                       # Track reads on a per bank basis
system.mem_ctrls.perBankRdReqs::9             1439959                       # Track reads on a per bank basis
system.mem_ctrls.perBankRdReqs::10            1439411                       # Track reads on a per bank basis
system.mem_ctrls.perBankRdReqs::11            1439220                       # Track reads on a per bank basis
system.mem_ctrls.perBankRdReqs::12            1439462                       # Track reads on a per bank basis
system.mem_ctrls.perBankRdReqs::13            1439460                       # Track reads on a per bank basis
system.mem_ctrls.perBankRdReqs::14            1439237                       # Track reads on a per bank basis
system.mem_ctrls.perBankRdReqs::15            1439558                       # Track reads on a per bank basis
system.mem_ctrls.perBankWrReqs::0              339010                       # Track writes on a per bank basis
system.mem_ctrls.perBankWrReqs::1              338923                       # Track writes on a per bank basis
system.mem_ctrls.perBankWrReqs::2              339255                       # Track writes on a per bank basis
system.mem_ctrls.perBankWrReqs::3              339253                       # Track writes on a per bank basis
system.mem_ctrls.perBankWrReqs::4              339279                       # Track writes on a per bank basis
system.mem_ctrls.perBankWrReqs::5              339005                       # Track writes on a per bank basis
system.mem_ctrls.perBankWrReqs::6              339051                       # Track writes on a per bank basis
system.mem_ctrls.perBankWrReqs::7              338903                       # Track writes on a per bank basis
system.mem_ctrls.perBankWrReqs::8              338628                       # Track writes on a per bank basis
system.mem_ctrls.perBankWrReqs::9              338736                       # Track writes on a per bank basis
system.mem_ctrls.perBankWrReqs::10             338586                       # Track writes on a per bank basis
system.mem_ctrls.perBankWrReqs::11             338751                       # Track writes on a per bank basis
system.mem_ctrls.perBankWrReqs::12             338633                       # Track writes on a per bank basis
system.mem_ctrls.perBankWrReqs::13             338714                       # Track writes on a per bank basis
system.mem_ctrls.perBankWrReqs::14             338464                       # Track writes on a per bank basis
system.mem_ctrls.perBankWrReqs::15             338684                       # Track writes on a per bank basis
system.mem_ctrls.numRdRetry                         0                       # Number of times rd buffer was full causing retry
system.mem_ctrls.numWrRetry                         0                       # Number of times wr buffer was full causing retry
system.mem_ctrls.totGap                  971086386222                       # Total gap between requests
system.mem_ctrls.readPktSize::0                     0                       # Categorize read packet sizes
system.mem_ctrls.readPktSize::1                     0                       # Categorize read packet sizes
system.mem_ctrls.readPktSize::2                     0                       # Categorize read packet sizes
system.mem_ctrls.readPktSize::3                     0                       # Categorize read packet sizes
system.mem_ctrls.readPktSize::4                     0                       # Categorize read packet sizes
system.mem_ctrls.readPktSize::5                     0                       # Categorize read packet sizes
system.mem_ctrls.readPktSize::6              23036553                       # Categorize read packet sizes
system.mem_ctrls.writePktSize::0                    0                       # Categorize write packet sizes
system.mem_ctrls.writePktSize::1                    0                       # Categorize write packet sizes
system.mem_ctrls.writePktSize::2                    0                       # Categorize write packet sizes
system.mem_ctrls.writePktSize::3                    0                       # Categorize write packet sizes
system.mem_ctrls.writePktSize::4                    0                       # Categorize write packet sizes
system.mem_ctrls.writePktSize::5                    0                       # Categorize write packet sizes
system.mem_ctrls.writePktSize::6              5421893                       # Categorize write packet sizes
system.mem_ctrls.rdQLenPdf::0                14885084                       # What read queue length does an incoming req see
system.mem_ctrls.rdQLenPdf::1                 5990116                       # What read queue length does an incoming req see
system.mem_ctrls.rdQLenPdf::2                 1830518                       # What read queue length does an incoming req see
system.mem_ctrls.rdQLenPdf::3                  330602                       # What read queue length does an incoming req see
system.mem_ctrls.rdQLenPdf::4                      16                       # What read queue length does an incoming req see
system.mem_ctrls.rdQLenPdf::5                       1                       # What read queue length does an incoming req see
system.mem_ctrls.rdQLenPdf::6                       0                       # What read queue length does an incoming req see
system.mem_ctrls.rdQLenPdf::7                       0                       # What read queue length does an incoming req see
system.mem_ctrls.rdQLenPdf::8                       0                       # What read queue length does an incoming req see
system.mem_ctrls.rdQLenPdf::9                       0                       # What read queue length does an incoming req see
system.mem_ctrls.rdQLenPdf::10                      0                       # What read queue length does an incoming req see
system.mem_ctrls.rdQLenPdf::11                      0                       # What read queue length does an incoming req see
system.mem_ctrls.rdQLenPdf::12                      0                       # What read queue length does an incoming req see
system.mem_ctrls.rdQLenPdf::13                      0                       # What read queue length does an incoming req see
system.mem_ctrls.rdQLenPdf::14                      0                       # What read queue length does an incoming req see
system.mem_ctrls.rdQLenPdf::15                      0                       # What read queue length does an incoming req see
system.mem_ctrls.rdQLenPdf::16                      0                       # What read queue length does an incoming req see
system.mem_ctrls.rdQLenPdf::17                      0                       # What read queue length does an incoming req see
system.mem_ctrls.rdQLenPdf::18                      0                       # What read queue length does an incoming req see
system.mem_ctrls.rdQLenPdf::19                      0                       # What read queue length does an incoming req see
system.mem_ctrls.rdQLenPdf::20                      0                       # What read queue length does an incoming req see
system.mem_ctrls.rdQLenPdf::21                      0                       # What read queue length does an incoming req see
system.mem_ctrls.rdQLenPdf::22                      0                       # What read queue length does an incoming req see
system.mem_ctrls.rdQLenPdf::23                      0                       # What read queue length does an incoming req see
system.mem_ctrls.rdQLenPdf::24                      0                       # What read queue length does an incoming req see
system.mem_ctrls.rdQLenPdf::25                      0                       # What read queue length does an incoming req see
system.mem_ctrls.rdQLenPdf::26                      0                       # What read queue length does an incoming req see
system.mem_ctrls.rdQLenPdf::27                      0                       # What read queue length does an incoming req see
system.mem_ctrls.rdQLenPdf::28                      0                       # What read queue length does an incoming req see
system.mem_ctrls.rdQLenPdf::29                      0                       # What read queue length does an incoming req see
system.mem_ctrls.rdQLenPdf::30                      0                       # What read queue length does an incoming req see
system.mem_ctrls.rdQLenPdf::31                      0                       # What read queue length does an incoming req see
system.mem_ctrls.wrQLenPdf::0                  208689                       # What write queue length does an incoming req see
system.mem_ctrls.wrQLenPdf::1                  235481                       # What write queue length does an incoming req see
system.mem_ctrls.wrQLenPdf::2                  235703                       # What write queue length does an incoming req see
system.mem_ctrls.wrQLenPdf::3                  235732                       # What write queue length does an incoming req see
system.mem_ctrls.wrQLenPdf::4                  235733                       # What write queue length does an incoming req see
system.mem_ctrls.wrQLenPdf::5                  235734                       # What write queue length does an incoming req see
system.mem_ctrls.wrQLenPdf::6                  235734                       # What write queue length does an incoming req see
system.mem_ctrls.wrQLenPdf::7                  235734                       # What write queue length does an incoming req see
system.mem_ctrls.wrQLenPdf::8                  235734                       # What write queue length does an incoming req see
system.mem_ctrls.wrQLenPdf::9                  235734                       # What write queue length does an incoming req see
system.mem_ctrls.wrQLenPdf::10                 235734                       # What write queue length does an incoming req see
system.mem_ctrls.wrQLenPdf::11                 235734                       # What write queue length does an incoming req see
system.mem_ctrls.wrQLenPdf::12                 235734                       # What write queue length does an incoming req see
system.mem_ctrls.wrQLenPdf::13                 235734                       # What write queue length does an incoming req see
system.mem_ctrls.wrQLenPdf::14                 235734                       # What write queue length does an incoming req see
system.mem_ctrls.wrQLenPdf::15                 235734                       # What write queue length does an incoming req see
system.mem_ctrls.wrQLenPdf::16                 235733                       # What write queue length does an incoming req see
system.mem_ctrls.wrQLenPdf::17                 235733                       # What write queue length does an incoming req see
system.mem_ctrls.wrQLenPdf::18                 235733                       # What write queue length does an incoming req see
system.mem_ctrls.wrQLenPdf::19                 235733                       # What write queue length does an incoming req see
system.mem_ctrls.wrQLenPdf::20                 235733                       # What write queue length does an incoming req see
system.mem_ctrls.wrQLenPdf::21                 235733                       # What write queue length does an incoming req see
system.mem_ctrls.wrQLenPdf::22                 235733                       # What write queue length does an incoming req see
system.mem_ctrls.wrQLenPdf::23                  27045                       # What write queue length does an incoming req see
system.mem_ctrls.wrQLenPdf::24                    253                       # What write queue length does an incoming req see
system.mem_ctrls.wrQLenPdf::25                     31                       # What write queue length does an incoming req see
system.mem_ctrls.wrQLenPdf::26                      2                       # What write queue length does an incoming req see
system.mem_ctrls.wrQLenPdf::27                      1                       # What write queue length does an incoming req see
system.mem_ctrls.wrQLenPdf::28                      0                       # What write queue length does an incoming req see
system.mem_ctrls.wrQLenPdf::29                      0                       # What write queue length does an incoming req see
system.mem_ctrls.wrQLenPdf::30                      0                       # What write queue length does an incoming req see
system.mem_ctrls.wrQLenPdf::31                      0                       # What write queue length does an incoming req see
system.mem_ctrls.bytesPerActivate::samples      2183637                       # Bytes accessed per row activation
system.mem_ctrls.bytesPerActivate::mean    834.059419                       # Bytes accessed per row activation
system.mem_ctrls.bytesPerActivate::gmean   226.847775                       # Bytes accessed per row activation
system.mem_ctrls.bytesPerActivate::stdev  1754.392787                       # Bytes accessed per row activation
system.mem_ctrls.bytesPerActivate::64-65      1145233     52.45%     52.45% # Bytes accessed per row activation
system.mem_ctrls.bytesPerActivate::128-129        72925      3.34%     55.79% # Bytes accessed per row activation
system.mem_ctrls.bytesPerActivate::192-193        34416      1.58%     57.36% # Bytes accessed per row activation
system.mem_ctrls.bytesPerActivate::256-257        31003      1.42%     58.78% # Bytes accessed per row activation
system.mem_ctrls.bytesPerActivate::320-321        30809      1.41%     60.19% # Bytes accessed per row activation
system.mem_ctrls.bytesPerActivate::384-385        30926      1.42%     61.61% # Bytes accessed per row activation
system.mem_ctrls.bytesPerActivate::448-449        40086      1.84%     63.44% # Bytes accessed per row activation
system.mem_ctrls.bytesPerActivate::512-513        42561      1.95%     65.39% # Bytes accessed per row activation
system.mem_ctrls.bytesPerActivate::576-577        25068      1.15%     66.54% # Bytes accessed per row activation
system.mem_ctrls.bytesPerActivate::640-641        27505      1.26%     67.80% # Bytes accessed per row activation
system.mem_ctrls.bytesPerActivate::704-705       103087      4.72%     72.52% # Bytes accessed per row activation
system.mem_ctrls.bytesPerActivate::768-769        97824      4.48%     77.00% # Bytes accessed per row activation
system.mem_ctrls.bytesPerActivate::832-833        19909      0.91%     77.91% # Bytes accessed per row activation
system.mem_ctrls.bytesPerActivate::896-897        14456      0.66%     78.58% # Bytes accessed per row activation
system.mem_ctrls.bytesPerActivate::960-961        14738      0.67%     79.25% # Bytes accessed per row activation
system.mem_ctrls.bytesPerActivate::1024-1025        22826      1.05%     80.30% # Bytes accessed per row activation
system.mem_ctrls.bytesPerActivate::1088-1089        26658      1.22%     81.52% # Bytes accessed per row activation
system.mem_ctrls.bytesPerActivate::1152-1153        10415      0.48%     81.99% # Bytes accessed per row activation
system.mem_ctrls.bytesPerActivate::1216-1217        10554      0.48%     82.48% # Bytes accessed per row activation
system.mem_ctrls.bytesPerActivate::1280-1281        10200      0.47%     82.94% # Bytes accessed per row activation
system.mem_ctrls.bytesPerActivate::1344-1345        10185      0.47%     83.41% # Bytes accessed per row activation
system.mem_ctrls.bytesPerActivate::1408-1409        12993      0.60%     84.01% # Bytes accessed per row activation
system.mem_ctrls.bytesPerActivate::1472-1473       179980      8.24%     92.25% # Bytes accessed per row activation
system.mem_ctrls.bytesPerActivate::1536-1537         4230      0.19%     92.44% # Bytes accessed per row activation
system.mem_ctrls.bytesPerActivate::1600-1601         1150      0.05%     92.49% # Bytes accessed per row activation
system.mem_ctrls.bytesPerActivate::1664-1665          895      0.04%     92.54% # Bytes accessed per row activation
system.mem_ctrls.bytesPerActivate::1728-1729          984      0.05%     92.58% # Bytes accessed per row activation
system.mem_ctrls.bytesPerActivate::1792-1793          851      0.04%     92.62% # Bytes accessed per row activation
system.mem_ctrls.bytesPerActivate::1856-1857          898      0.04%     92.66% # Bytes accessed per row activation
system.mem_ctrls.bytesPerActivate::1920-1921          992      0.05%     92.71% # Bytes accessed per row activation
system.mem_ctrls.bytesPerActivate::1984-1985          888      0.04%     92.75% # Bytes accessed per row activation
system.mem_ctrls.bytesPerActivate::2048-2049          798      0.04%     92.78% # Bytes accessed per row activation
system.mem_ctrls.bytesPerActivate::2112-2113         1157      0.05%     92.84% # Bytes accessed per row activation
system.mem_ctrls.bytesPerActivate::2176-2177         1095      0.05%     92.89% # Bytes accessed per row activation
system.mem_ctrls.bytesPerActivate::2240-2241          769      0.04%     92.92% # Bytes accessed per row activation
system.mem_ctrls.bytesPerActivate::2304-2305          732      0.03%     92.95% # Bytes accessed per row activation
system.mem_ctrls.bytesPerActivate::2368-2369          814      0.04%     92.99% # Bytes accessed per row activation
system.mem_ctrls.bytesPerActivate::2432-2433         1352      0.06%     93.05% # Bytes accessed per row activation
system.mem_ctrls.bytesPerActivate::2496-2497         2079      0.10%     93.15% # Bytes accessed per row activation
system.mem_ctrls.bytesPerActivate::2560-2561          779      0.04%     93.18% # Bytes accessed per row activation
system.mem_ctrls.bytesPerActivate::2624-2625          694      0.03%     93.22% # Bytes accessed per row activation
system.mem_ctrls.bytesPerActivate::2688-2689          626      0.03%     93.25% # Bytes accessed per row activation
system.mem_ctrls.bytesPerActivate::2752-2753          688      0.03%     93.28% # Bytes accessed per row activation
system.mem_ctrls.bytesPerActivate::2816-2817          622      0.03%     93.31% # Bytes accessed per row activation
system.mem_ctrls.bytesPerActivate::2880-2881         1190      0.05%     93.36% # Bytes accessed per row activation
system.mem_ctrls.bytesPerActivate::2944-2945          863      0.04%     93.40% # Bytes accessed per row activation
system.mem_ctrls.bytesPerActivate::3008-3009          621      0.03%     93.43% # Bytes accessed per row activation
system.mem_ctrls.bytesPerActivate::3072-3073          650      0.03%     93.46% # Bytes accessed per row activation
system.mem_ctrls.bytesPerActivate::3136-3137          712      0.03%     93.49% # Bytes accessed per row activation
system.mem_ctrls.bytesPerActivate::3200-3201         4638      0.21%     93.70% # Bytes accessed per row activation
system.mem_ctrls.bytesPerActivate::3264-3265         1002      0.05%     93.75% # Bytes accessed per row activation
system.mem_ctrls.bytesPerActivate::3328-3329          840      0.04%     93.79% # Bytes accessed per row activation
system.mem_ctrls.bytesPerActivate::3392-3393          933      0.04%     93.83% # Bytes accessed per row activation
system.mem_ctrls.bytesPerActivate::3456-3457          848      0.04%     93.87% # Bytes accessed per row activation
system.mem_ctrls.bytesPerActivate::3520-3521          863      0.04%     93.91% # Bytes accessed per row activation
system.mem_ctrls.bytesPerActivate::3584-3585          906      0.04%     93.95% # Bytes accessed per row activation
system.mem_ctrls.bytesPerActivate::3648-3649          828      0.04%     93.99% # Bytes accessed per row activation
system.mem_ctrls.bytesPerActivate::3712-3713          937      0.04%     94.03% # Bytes accessed per row activation
system.mem_ctrls.bytesPerActivate::3776-3777          911      0.04%     94.07% # Bytes accessed per row activation
system.mem_ctrls.bytesPerActivate::3840-3841          888      0.04%     94.11% # Bytes accessed per row activation
system.mem_ctrls.bytesPerActivate::3904-3905          969      0.04%     94.16% # Bytes accessed per row activation
system.mem_ctrls.bytesPerActivate::3968-3969         1015      0.05%     94.20% # Bytes accessed per row activation
system.mem_ctrls.bytesPerActivate::4032-4033          978      0.04%     94.25% # Bytes accessed per row activation
system.mem_ctrls.bytesPerActivate::4096-4097          950      0.04%     94.29% # Bytes accessed per row activation
system.mem_ctrls.bytesPerActivate::4160-4161          909      0.04%     94.33% # Bytes accessed per row activation
system.mem_ctrls.bytesPerActivate::4224-4225         4443      0.20%     94.54% # Bytes accessed per row activation
system.mem_ctrls.bytesPerActivate::4288-4289          712      0.03%     94.57% # Bytes accessed per row activation
system.mem_ctrls.bytesPerActivate::4352-4353          600      0.03%     94.60% # Bytes accessed per row activation
system.mem_ctrls.bytesPerActivate::4416-4417          590      0.03%     94.62% # Bytes accessed per row activation
system.mem_ctrls.bytesPerActivate::4480-4481          557      0.03%     94.65% # Bytes accessed per row activation
system.mem_ctrls.bytesPerActivate::4544-4545          550      0.03%     94.67% # Bytes accessed per row activation
system.mem_ctrls.bytesPerActivate::4608-4609          552      0.03%     94.70% # Bytes accessed per row activation
system.mem_ctrls.bytesPerActivate::4672-4673          556      0.03%     94.73% # Bytes accessed per row activation
system.mem_ctrls.bytesPerActivate::4736-4737          501      0.02%     94.75% # Bytes accessed per row activation
system.mem_ctrls.bytesPerActivate::4800-4801          559      0.03%     94.77% # Bytes accessed per row activation
system.mem_ctrls.bytesPerActivate::4864-4865          515      0.02%     94.80% # Bytes accessed per row activation
system.mem_ctrls.bytesPerActivate::4928-4929          565      0.03%     94.82% # Bytes accessed per row activation
system.mem_ctrls.bytesPerActivate::4992-4993          604      0.03%     94.85% # Bytes accessed per row activation
system.mem_ctrls.bytesPerActivate::5056-5057          542      0.02%     94.88% # Bytes accessed per row activation
system.mem_ctrls.bytesPerActivate::5120-5121          540      0.02%     94.90% # Bytes accessed per row activation
system.mem_ctrls.bytesPerActivate::5184-5185          556      0.03%     94.93% # Bytes accessed per row activation
system.mem_ctrls.bytesPerActivate::5248-5249          527      0.02%     94.95% # Bytes accessed per row activation
system.mem_ctrls.bytesPerActivate::5312-5313          550      0.03%     94.98% # Bytes accessed per row activation
system.mem_ctrls.bytesPerActivate::5376-5377          501      0.02%     95.00% # Bytes accessed per row activation
system.mem_ctrls.bytesPerActivate::5440-5441          570      0.03%     95.02% # Bytes accessed per row activation
system.mem_ctrls.bytesPerActivate::5504-5505          549      0.03%     95.05% # Bytes accessed per row activation
system.mem_ctrls.bytesPerActivate::5568-5569          468      0.02%     95.07% # Bytes accessed per row activation
system.mem_ctrls.bytesPerActivate::5632-5633          498      0.02%     95.09% # Bytes accessed per row activation
system.mem_ctrls.bytesPerActivate::5696-5697          487      0.02%     95.12% # Bytes accessed per row activation
system.mem_ctrls.bytesPerActivate::5760-5761          510      0.02%     95.14% # Bytes accessed per row activation
system.mem_ctrls.bytesPerActivate::5824-5825          458      0.02%     95.16% # Bytes accessed per row activation
system.mem_ctrls.bytesPerActivate::5888-5889          438      0.02%     95.18% # Bytes accessed per row activation
system.mem_ctrls.bytesPerActivate::5952-5953          510      0.02%     95.20% # Bytes accessed per row activation
system.mem_ctrls.bytesPerActivate::6016-6017          393      0.02%     95.22% # Bytes accessed per row activation
system.mem_ctrls.bytesPerActivate::6080-6081          484      0.02%     95.24% # Bytes accessed per row activation
system.mem_ctrls.bytesPerActivate::6144-6145          418      0.02%     95.26% # Bytes accessed per row activation
system.mem_ctrls.bytesPerActivate::6208-6209          536      0.02%     95.29% # Bytes accessed per row activation
system.mem_ctrls.bytesPerActivate::6272-6273         3859      0.18%     95.46% # Bytes accessed per row activation
system.mem_ctrls.bytesPerActivate::6336-6337          389      0.02%     95.48% # Bytes accessed per row activation
system.mem_ctrls.bytesPerActivate::6400-6401          435      0.02%     95.50% # Bytes accessed per row activation
system.mem_ctrls.bytesPerActivate::6464-6465          395      0.02%     95.52% # Bytes accessed per row activation
system.mem_ctrls.bytesPerActivate::6528-6529          412      0.02%     95.54% # Bytes accessed per row activation
system.mem_ctrls.bytesPerActivate::6592-6593          434      0.02%     95.56% # Bytes accessed per row activation
system.mem_ctrls.bytesPerActivate::6656-6657          405      0.02%     95.58% # Bytes accessed per row activation
system.mem_ctrls.bytesPerActivate::6720-6721          642      0.03%     95.61% # Bytes accessed per row activation
system.mem_ctrls.bytesPerActivate::6784-6785          737      0.03%     95.64% # Bytes accessed per row activation
system.mem_ctrls.bytesPerActivate::6848-6849          386      0.02%     95.66% # Bytes accessed per row activation
system.mem_ctrls.bytesPerActivate::6912-6913          440      0.02%     95.68% # Bytes accessed per row activation
system.mem_ctrls.bytesPerActivate::6976-6977          522      0.02%     95.70% # Bytes accessed per row activation
system.mem_ctrls.bytesPerActivate::7040-7041          549      0.03%     95.73% # Bytes accessed per row activation
system.mem_ctrls.bytesPerActivate::7104-7105          554      0.03%     95.75% # Bytes accessed per row activation
system.mem_ctrls.bytesPerActivate::7168-7169          879      0.04%     95.79% # Bytes accessed per row activation
system.mem_ctrls.bytesPerActivate::7232-7233          661      0.03%     95.82% # Bytes accessed per row activation
system.mem_ctrls.bytesPerActivate::7296-7297          590      0.03%     95.85% # Bytes accessed per row activation
system.mem_ctrls.bytesPerActivate::7360-7361          607      0.03%     95.88% # Bytes accessed per row activation
system.mem_ctrls.bytesPerActivate::7424-7425         1136      0.05%     95.93% # Bytes accessed per row activation
system.mem_ctrls.bytesPerActivate::7488-7489          230      0.01%     95.94% # Bytes accessed per row activation
system.mem_ctrls.bytesPerActivate::7552-7553          236      0.01%     95.95% # Bytes accessed per row activation
system.mem_ctrls.bytesPerActivate::7616-7617          204      0.01%     95.96% # Bytes accessed per row activation
system.mem_ctrls.bytesPerActivate::7680-7681          229      0.01%     95.97% # Bytes accessed per row activation
system.mem_ctrls.bytesPerActivate::7744-7745          209      0.01%     95.98% # Bytes accessed per row activation
system.mem_ctrls.bytesPerActivate::7808-7809          182      0.01%     95.99% # Bytes accessed per row activation
system.mem_ctrls.bytesPerActivate::7872-7873          200      0.01%     96.00% # Bytes accessed per row activation
system.mem_ctrls.bytesPerActivate::7936-7937          169      0.01%     96.01% # Bytes accessed per row activation
system.mem_ctrls.bytesPerActivate::8000-8001          178      0.01%     96.01% # Bytes accessed per row activation
system.mem_ctrls.bytesPerActivate::8064-8065          185      0.01%     96.02% # Bytes accessed per row activation
system.mem_ctrls.bytesPerActivate::8128-8129          157      0.01%     96.03% # Bytes accessed per row activation
system.mem_ctrls.bytesPerActivate::8192-8193        86686      3.97%    100.00% # Bytes accessed per row activation
system.mem_ctrls.bytesPerActivate::total      2183637                       # Bytes accessed per row activation
system.mem_ctrls.totQLat                 129739442599                       # Total cycles spent in queuing delays
system.mem_ctrls.totMemAccLat            599202500099                       # Sum of mem lat for all requests
system.mem_ctrls.totBusLat               115181685000                       # Total cycles spent in databus access
system.mem_ctrls.totBankLat              354281372500                       # Total cycles spent in bank access
system.mem_ctrls.avgQLat                      5631.95                       # Average queueing delay per request
system.mem_ctrls.avgBankLat                  15379.24                       # Average bank access latency per request
system.mem_ctrls.avgBusLat                    5000.00                       # Average bus latency per request
system.mem_ctrls.avgMemAccLat                26011.19                       # Average memory access latency
system.mem_ctrls.avgRdBW                      1518.24                       # Average achieved read bandwidth in MB/s
system.mem_ctrls.avgWrBW                       357.33                       # Average achieved write bandwidth in MB/s
system.mem_ctrls.avgConsumedRdBW              1518.24                       # Average consumed read bandwidth in MB/s
system.mem_ctrls.avgConsumedWrBW               357.33                       # Average consumed write bandwidth in MB/s
system.mem_ctrls.peakBW                      12800.00                       # Theoretical peak bandwidth in MB/s
system.mem_ctrls.busUtil                        14.65                       # Data bus utilization in percentage
system.mem_ctrls.avgRdQLen                       0.62                       # Average read queue length over time
system.mem_ctrls.avgWrQLen                       8.71                       # Average write queue length over time
system.mem_ctrls.readRowHits                 21339379                       # Number of row buffer hits during reads
system.mem_ctrls.writeRowHits                 4935180                       # Number of row buffer hits during writes
system.mem_ctrls.readRowHitRate                 92.63                       # Row buffer hit rate for reads
system.mem_ctrls.writeRowHitRate                91.02                       # Row buffer hit rate for writes
system.mem_ctrls.avgGap                      34122.96                       # Average gap between requests
system.membus.throughput                   1875569516                       # Throughput (bytes/s)
system.membus.trans_dist::ReadReq            18161216                       # Transaction distribution
system.membus.trans_dist::ReadResp           18161215                       # Transaction distribution
system.membus.trans_dist::Writeback           5421893                       # Transaction distribution
system.membus.trans_dist::ReadExReq           4875337                       # Transaction distribution
system.membus.trans_dist::ReadExResp          4875336                       # Transaction distribution
system.membus.pkt_count_system.l2.mem_side::system.mem_ctrls.port     51494997                       # Packet count per connected master and slave (bytes)
system.membus.pkt_count::total               51494997                       # Packet count per connected master and slave (bytes)
system.membus.tot_pkt_size_system.l2.mem_side::system.mem_ctrls.port   1821340416                       # Cumulative packet size per connected master and slave (bytes)
system.membus.tot_pkt_size::total          1821340416                       # Cumulative packet size per connected master and slave (bytes)
system.membus.data_through_bus             1821340416                       # Total data (bytes)
system.membus.snoop_data_through_bus                0                       # Total snoop data (bytes)
system.membus.reqLayer0.occupancy         23920585470                       # Layer occupancy (ticks)
system.membus.reqLayer0.utilization               2.5                       # Layer utilization (%)
system.membus.respLayer1.occupancy        73620661549                       # Layer occupancy (ticks)
system.membus.respLayer1.utilization              7.6                       # Layer utilization (%)
system.switch_cpus.branchPred.lookups       106225732                       # Number of BP lookups
system.switch_cpus.branchPred.condPredicted    106070200                       # Number of conditional branches predicted
system.switch_cpus.branchPred.condIncorrect       409256                       # Number of conditional branches incorrect
system.switch_cpus.branchPred.BTBLookups    106060953                       # Number of BTB lookups
system.switch_cpus.branchPred.BTBHits       105634919                       # Number of BTB hits
system.switch_cpus.branchPred.BTBCorrect            0                       # Number of correct BTB predictions (this stat may not work properly.
system.switch_cpus.branchPred.BTBHitPct     99.598312                       # BTB Hit Percentage
system.switch_cpus.branchPred.usedRAS           22961                       # Number of times the RAS was used to get a target.
system.switch_cpus.branchPred.RASInCorrect         1136                       # Number of incorrect RAS predictions.
system.switch_cpus.dtb.fetch_hits                   0                       # ITB hits
system.switch_cpus.dtb.fetch_misses                 0                       # ITB misses
system.switch_cpus.dtb.fetch_acv                    0                       # ITB acv
system.switch_cpus.dtb.fetch_accesses               0                       # ITB accesses
system.switch_cpus.dtb.read_hits            403208557                       # DTB read hits
system.switch_cpus.dtb.read_misses            1555553                       # DTB read misses
system.switch_cpus.dtb.read_acv                     0                       # DTB read access violations
system.switch_cpus.dtb.read_accesses        404764110                       # DTB read accesses
system.switch_cpus.dtb.write_hits           127830125                       # DTB write hits
system.switch_cpus.dtb.write_misses            152063                       # DTB write misses
system.switch_cpus.dtb.write_acv                    0                       # DTB write access violations
system.switch_cpus.dtb.write_accesses       127982188                       # DTB write accesses
system.switch_cpus.dtb.data_hits            531038682                       # DTB hits
system.switch_cpus.dtb.data_misses            1707616                       # DTB misses
system.switch_cpus.dtb.data_acv                     0                       # DTB access violations
system.switch_cpus.dtb.data_accesses        532746298                       # DTB accesses
system.switch_cpus.itb.fetch_hits           212669323                       # ITB hits
system.switch_cpus.itb.fetch_misses               126                       # ITB misses
system.switch_cpus.itb.fetch_acv                    0                       # ITB acv
system.switch_cpus.itb.fetch_accesses       212669449                       # ITB accesses
system.switch_cpus.itb.read_hits                    0                       # DTB read hits
system.switch_cpus.itb.read_misses                  0                       # DTB read misses
system.switch_cpus.itb.read_acv                     0                       # DTB read access violations
system.switch_cpus.itb.read_accesses                0                       # DTB read accesses
system.switch_cpus.itb.write_hits                   0                       # DTB write hits
system.switch_cpus.itb.write_misses                 0                       # DTB write misses
system.switch_cpus.itb.write_acv                    0                       # DTB write access violations
system.switch_cpus.itb.write_accesses               0                       # DTB write accesses
system.switch_cpus.itb.data_hits                    0                       # DTB hits
system.switch_cpus.itb.data_misses                  0                       # DTB misses
system.switch_cpus.itb.data_acv                     0                       # DTB access violations
system.switch_cpus.itb.data_accesses                0                       # DTB accesses
system.cpu.workload.num_syscalls                    2                       # Number of system calls
system.switch_cpus.numCycles               2916175966                       # number of cpu cycles simulated
system.switch_cpus.numWorkItemsStarted              0                       # number of work items this cpu started
system.switch_cpus.numWorkItemsCompleted            0                       # number of work items this cpu completed
system.switch_cpus.fetch.icacheStallCycles    430207219                       # Number of cycles fetch is stalled on an Icache miss
system.switch_cpus.fetch.Insts             2170022385                       # Number of instructions fetch has processed
system.switch_cpus.fetch.Branches           106225732                       # Number of branches that fetch encountered
system.switch_cpus.fetch.predictedBranches    105657880                       # Number of branches that fetch has predicted taken
system.switch_cpus.fetch.Cycles             326522870                       # Number of cycles fetch has run and was not squashing or blocked
system.switch_cpus.fetch.SquashCycles        19266155                       # Number of cycles fetch has spent squashing
system.switch_cpus.fetch.BlockedCycles     1848773579                       # Number of cycles fetch has spent blocked
system.switch_cpus.fetch.MiscStallCycles          301                       # Number of cycles fetch has spent waiting on interrupts, or bad addresses, or out of MSHRs
system.switch_cpus.fetch.PendingTrapStallCycles         5188                       # Number of stall cycles due to pending traps
system.switch_cpus.fetch.IcacheWaitRetryStallCycles           48                       # Number of stall cycles due to full MSHR
system.switch_cpus.fetch.CacheLines         212669323                       # Number of cache lines fetched
system.switch_cpus.fetch.IcacheSquashes        366845                       # Number of outstanding Icache misses that were squashed
system.switch_cpus.fetch.rateDist::samples   2618418146                       # Number of instructions fetched each cycle (Total)
system.switch_cpus.fetch.rateDist::mean      0.828753                       # Number of instructions fetched each cycle (Total)
system.switch_cpus.fetch.rateDist::stdev     2.281736                       # Number of instructions fetched each cycle (Total)
system.switch_cpus.fetch.rateDist::underflows            0      0.00%      0.00% # Number of instructions fetched each cycle (Total)
system.switch_cpus.fetch.rateDist::0       2291895276     87.53%     87.53% # Number of instructions fetched each cycle (Total)
system.switch_cpus.fetch.rateDist::1          3715489      0.14%     87.67% # Number of instructions fetched each cycle (Total)
system.switch_cpus.fetch.rateDist::2          2818438      0.11%     87.78% # Number of instructions fetched each cycle (Total)
system.switch_cpus.fetch.rateDist::3          4367298      0.17%     87.95% # Number of instructions fetched each cycle (Total)
system.switch_cpus.fetch.rateDist::4         65369637      2.50%     90.44% # Number of instructions fetched each cycle (Total)
system.switch_cpus.fetch.rateDist::5          6408993      0.24%     90.69% # Number of instructions fetched each cycle (Total)
system.switch_cpus.fetch.rateDist::6          7419015      0.28%     90.97% # Number of instructions fetched each cycle (Total)
system.switch_cpus.fetch.rateDist::7         81861477      3.13%     94.10% # Number of instructions fetched each cycle (Total)
system.switch_cpus.fetch.rateDist::8        154562523      5.90%    100.00% # Number of instructions fetched each cycle (Total)
system.switch_cpus.fetch.rateDist::overflows            0      0.00%    100.00% # Number of instructions fetched each cycle (Total)
system.switch_cpus.fetch.rateDist::min_value            0                       # Number of instructions fetched each cycle (Total)
system.switch_cpus.fetch.rateDist::max_value            8                       # Number of instructions fetched each cycle (Total)
system.switch_cpus.fetch.rateDist::total   2618418146                       # Number of instructions fetched each cycle (Total)
system.switch_cpus.fetch.branchRate          0.036426                       # Number of branch fetches per cycle
system.switch_cpus.fetch.rate                0.744133                       # Number of inst fetches per cycle
system.switch_cpus.decode.IdleCycles        473950901                       # Number of cycles decode is idle
system.switch_cpus.decode.BlockedCycles    1806089140                       # Number of cycles decode is blocked
system.switch_cpus.decode.RunCycles         298696298                       # Number of cycles decode is running
system.switch_cpus.decode.UnblockCycles      26776982                       # Number of cycles decode is unblocking
system.switch_cpus.decode.SquashCycles       12904824                       # Number of cycles decode is squashing
system.switch_cpus.decode.BranchResolved       126479                       # Number of times decode resolved a branch
system.switch_cpus.decode.BranchMispred          4227                       # Number of times decode detected a branch misprediction
system.switch_cpus.decode.DecodedInsts     2162739048                       # Number of instructions handled by decode
system.switch_cpus.decode.SquashedInsts          7608                       # Number of squashed instructions handled by decode
system.switch_cpus.rename.SquashCycles       12904824                       # Number of cycles rename is squashing
system.switch_cpus.rename.IdleCycles        497288230                       # Number of cycles rename is idle
system.switch_cpus.rename.BlockCycles      1641147649                       # Number of cycles rename is blocking
system.switch_cpus.rename.serializeStallCycles        85303                       # count of cycles rename stalled for serializing inst
system.switch_cpus.rename.RunCycles         300216446                       # Number of cycles rename is running
system.switch_cpus.rename.UnblockCycles     166775693                       # Number of cycles rename is unblocking
system.switch_cpus.rename.RenamedInsts     2150324893                       # Number of instructions processed by rename
system.switch_cpus.rename.ROBFullEvents        496271                       # Number of times rename has blocked due to ROB full
system.switch_cpus.rename.IQFullEvents       47352753                       # Number of times rename has blocked due to IQ full
system.switch_cpus.rename.LSQFullEvents     110948705                       # Number of times rename has blocked due to LSQ full
system.switch_cpus.rename.RenamedOperands   1912078430                       # Number of destination operands rename has renamed
system.switch_cpus.rename.RenameLookups    3393319922                       # Number of register rename lookups that rename has made
system.switch_cpus.rename.int_rename_lookups   1192711758                       # Number of integer rename lookups
system.switch_cpus.rename.fp_rename_lookups   2200608164                       # Number of floating rename lookups
system.switch_cpus.rename.CommittedMaps    1772716426                       # Number of HB maps that are committed
system.switch_cpus.rename.UndoneMaps        139361938                       # Number of HB maps that are undone due to squashing
system.switch_cpus.rename.serializingInsts         4145                       # count of serializing insts renamed
system.switch_cpus.rename.tempSerializingInsts          238                       # count of temporary serializing insts renamed
system.switch_cpus.rename.skidInsts         377431354                       # count of insts added to the skid buffer
system.switch_cpus.memDep0.insertedLoads    409150465                       # Number of loads inserted to the mem dependence unit.
system.switch_cpus.memDep0.insertedStores    131758341                       # Number of stores inserted to the mem dependence unit.
system.switch_cpus.memDep0.conflictingLoads      9388317                       # Number of conflicting loads.
system.switch_cpus.memDep0.conflictingStores      4492444                       # Number of conflicting stores.
system.switch_cpus.iq.iqInstsAdded         2076870737                       # Number of instructions added to the IQ (excludes non-spec)
system.switch_cpus.iq.iqNonSpecInstsAdded          465                       # Number of non-speculative instructions added to the IQ
system.switch_cpus.iq.iqInstsIssued        2045054534                       # Number of instructions issued
system.switch_cpus.iq.iqSquashedInstsIssued      7690791                       # Number of squashed instructions issued
system.switch_cpus.iq.iqSquashedInstsExamined     76856935                       # Number of squashed instructions iterated over during squash; mainly for profiling
system.switch_cpus.iq.iqSquashedOperandsExamined     67358133                       # Number of squashed operands that are examined and possibly removed from graph
system.switch_cpus.iq.iqSquashedNonSpecRemoved           15                       # Number of squashed non-spec instructions that were removed
system.switch_cpus.iq.issued_per_cycle::samples   2618418146                       # Number of insts issued each cycle
system.switch_cpus.iq.issued_per_cycle::mean     0.781027                       # Number of insts issued each cycle
system.switch_cpus.iq.issued_per_cycle::stdev     1.363289                       # Number of insts issued each cycle
system.switch_cpus.iq.issued_per_cycle::underflows            0      0.00%      0.00% # Number of insts issued each cycle
system.switch_cpus.iq.issued_per_cycle::0   1752027050     66.91%     66.91% # Number of insts issued each cycle
system.switch_cpus.iq.issued_per_cycle::1    258937876      9.89%     76.80% # Number of insts issued each cycle
system.switch_cpus.iq.issued_per_cycle::2    299492271     11.44%     88.24% # Number of insts issued each cycle
system.switch_cpus.iq.issued_per_cycle::3    163945009      6.26%     94.50% # Number of insts issued each cycle
system.switch_cpus.iq.issued_per_cycle::4     80820250      3.09%     97.59% # Number of insts issued each cycle
system.switch_cpus.iq.issued_per_cycle::5     24913010      0.95%     98.54% # Number of insts issued each cycle
system.switch_cpus.iq.issued_per_cycle::6     23713948      0.91%     99.44% # Number of insts issued each cycle
system.switch_cpus.iq.issued_per_cycle::7     11382505      0.43%     99.88% # Number of insts issued each cycle
system.switch_cpus.iq.issued_per_cycle::8      3186227      0.12%    100.00% # Number of insts issued each cycle
system.switch_cpus.iq.issued_per_cycle::overflows            0      0.00%    100.00% # Number of insts issued each cycle
system.switch_cpus.iq.issued_per_cycle::min_value            0                       # Number of insts issued each cycle
system.switch_cpus.iq.issued_per_cycle::max_value            8                       # Number of insts issued each cycle
system.switch_cpus.iq.issued_per_cycle::total   2618418146                       # Number of insts issued each cycle
system.switch_cpus.iq.fu_full::No_OpClass            0      0.00%      0.00% # attempts to use FU when none available
system.switch_cpus.iq.fu_full::IntAlu           85309      0.12%      0.12% # attempts to use FU when none available
system.switch_cpus.iq.fu_full::IntMult              0      0.00%      0.12% # attempts to use FU when none available
system.switch_cpus.iq.fu_full::IntDiv               0      0.00%      0.12% # attempts to use FU when none available
system.switch_cpus.iq.fu_full::FloatAdd        495092      0.72%      0.84% # attempts to use FU when none available
system.switch_cpus.iq.fu_full::FloatCmp             0      0.00%      0.84% # attempts to use FU when none available
system.switch_cpus.iq.fu_full::FloatCvt             0      0.00%      0.84% # attempts to use FU when none available
system.switch_cpus.iq.fu_full::FloatMult     52390559     76.13%     76.98% # attempts to use FU when none available
system.switch_cpus.iq.fu_full::FloatDiv       9760299     14.18%     91.16% # attempts to use FU when none available
system.switch_cpus.iq.fu_full::FloatSqrt       134639      0.20%     91.36% # attempts to use FU when none available
system.switch_cpus.iq.fu_full::SimdAdd              0      0.00%     91.36% # attempts to use FU when none available
system.switch_cpus.iq.fu_full::SimdAddAcc            0      0.00%     91.36% # attempts to use FU when none available
system.switch_cpus.iq.fu_full::SimdAlu              0      0.00%     91.36% # attempts to use FU when none available
system.switch_cpus.iq.fu_full::SimdCmp              0      0.00%     91.36% # attempts to use FU when none available
system.switch_cpus.iq.fu_full::SimdCvt              0      0.00%     91.36% # attempts to use FU when none available
system.switch_cpus.iq.fu_full::SimdMisc             0      0.00%     91.36% # attempts to use FU when none available
system.switch_cpus.iq.fu_full::SimdMult             0      0.00%     91.36% # attempts to use FU when none available
system.switch_cpus.iq.fu_full::SimdMultAcc            0      0.00%     91.36% # attempts to use FU when none available
system.switch_cpus.iq.fu_full::SimdShift            0      0.00%     91.36% # attempts to use FU when none available
system.switch_cpus.iq.fu_full::SimdShiftAcc            0      0.00%     91.36% # attempts to use FU when none available
system.switch_cpus.iq.fu_full::SimdSqrt             0      0.00%     91.36% # attempts to use FU when none available
system.switch_cpus.iq.fu_full::SimdFloatAdd            0      0.00%     91.36% # attempts to use FU when none available
system.switch_cpus.iq.fu_full::SimdFloatAlu            0      0.00%     91.36% # attempts to use FU when none available
system.switch_cpus.iq.fu_full::SimdFloatCmp            0      0.00%     91.36% # attempts to use FU when none available
system.switch_cpus.iq.fu_full::SimdFloatCvt            0      0.00%     91.36% # attempts to use FU when none available
system.switch_cpus.iq.fu_full::SimdFloatDiv            0      0.00%     91.36% # attempts to use FU when none available
system.switch_cpus.iq.fu_full::SimdFloatMisc            0      0.00%     91.36% # attempts to use FU when none available
system.switch_cpus.iq.fu_full::SimdFloatMult            0      0.00%     91.36% # attempts to use FU when none available
system.switch_cpus.iq.fu_full::SimdFloatMultAcc            0      0.00%     91.36% # attempts to use FU when none available
system.switch_cpus.iq.fu_full::SimdFloatSqrt            0      0.00%     91.36% # attempts to use FU when none available
system.switch_cpus.iq.fu_full::MemRead        2919649      4.24%     95.60% # attempts to use FU when none available
system.switch_cpus.iq.fu_full::MemWrite       3028632      4.40%    100.00% # attempts to use FU when none available
system.switch_cpus.iq.fu_full::IprAccess            0      0.00%    100.00% # attempts to use FU when none available
system.switch_cpus.iq.fu_full::InstPrefetch            0      0.00%    100.00% # attempts to use FU when none available
system.switch_cpus.iq.FU_type_0::No_OpClass          104      0.00%      0.00% # Type of FU issued
system.switch_cpus.iq.FU_type_0::IntAlu     760059067     37.17%     37.17% # Type of FU issued
system.switch_cpus.iq.FU_type_0::IntMult         4830      0.00%     37.17% # Type of FU issued
system.switch_cpus.iq.FU_type_0::IntDiv             0      0.00%     37.17% # Type of FU issued
system.switch_cpus.iq.FU_type_0::FloatAdd    307384199     15.03%     52.20% # Type of FU issued
system.switch_cpus.iq.FU_type_0::FloatCmp    104080141      5.09%     57.29% # Type of FU issued
system.switch_cpus.iq.FU_type_0::FloatCvt     56243140      2.75%     60.04% # Type of FU issued
system.switch_cpus.iq.FU_type_0::FloatMult    270467320     13.23%     73.26% # Type of FU issued
system.switch_cpus.iq.FU_type_0::FloatDiv     10688929      0.52%     73.78% # Type of FU issued
system.switch_cpus.iq.FU_type_0::FloatSqrt      1845228      0.09%     73.87% # Type of FU issued
system.switch_cpus.iq.FU_type_0::SimdAdd            0      0.00%     73.87% # Type of FU issued
system.switch_cpus.iq.FU_type_0::SimdAddAcc            0      0.00%     73.87% # Type of FU issued
system.switch_cpus.iq.FU_type_0::SimdAlu            0      0.00%     73.87% # Type of FU issued
system.switch_cpus.iq.FU_type_0::SimdCmp            0      0.00%     73.87% # Type of FU issued
system.switch_cpus.iq.FU_type_0::SimdCvt            0      0.00%     73.87% # Type of FU issued
system.switch_cpus.iq.FU_type_0::SimdMisc            0      0.00%     73.87% # Type of FU issued
system.switch_cpus.iq.FU_type_0::SimdMult            0      0.00%     73.87% # Type of FU issued
system.switch_cpus.iq.FU_type_0::SimdMultAcc            0      0.00%     73.87% # Type of FU issued
system.switch_cpus.iq.FU_type_0::SimdShift            0      0.00%     73.87% # Type of FU issued
system.switch_cpus.iq.FU_type_0::SimdShiftAcc            0      0.00%     73.87% # Type of FU issued
system.switch_cpus.iq.FU_type_0::SimdSqrt            0      0.00%     73.87% # Type of FU issued
system.switch_cpus.iq.FU_type_0::SimdFloatAdd            0      0.00%     73.87% # Type of FU issued
system.switch_cpus.iq.FU_type_0::SimdFloatAlu            0      0.00%     73.87% # Type of FU issued
system.switch_cpus.iq.FU_type_0::SimdFloatCmp            0      0.00%     73.87% # Type of FU issued
system.switch_cpus.iq.FU_type_0::SimdFloatCvt            0      0.00%     73.87% # Type of FU issued
system.switch_cpus.iq.FU_type_0::SimdFloatDiv            0      0.00%     73.87% # Type of FU issued
system.switch_cpus.iq.FU_type_0::SimdFloatMisc            0      0.00%     73.87% # Type of FU issued
system.switch_cpus.iq.FU_type_0::SimdFloatMult            0      0.00%     73.87% # Type of FU issued
system.switch_cpus.iq.FU_type_0::SimdFloatMultAcc            0      0.00%     73.87% # Type of FU issued
system.switch_cpus.iq.FU_type_0::SimdFloatSqrt            0      0.00%     73.87% # Type of FU issued
system.switch_cpus.iq.FU_type_0::MemRead    406285571     19.87%     93.74% # Type of FU issued
system.switch_cpus.iq.FU_type_0::MemWrite    127996005      6.26%    100.00% # Type of FU issued
system.switch_cpus.iq.FU_type_0::IprAccess            0      0.00%    100.00% # Type of FU issued
system.switch_cpus.iq.FU_type_0::InstPrefetch            0      0.00%    100.00% # Type of FU issued
system.switch_cpus.iq.FU_type_0::total     2045054534                       # Type of FU issued
system.switch_cpus.iq.rate                   0.701280                       # Inst issue rate
system.switch_cpus.iq.fu_busy_cnt            68814179                       # FU busy when requested
system.switch_cpus.iq.fu_busy_rate           0.033649                       # FU busy rate (busy events/executed inst)
system.switch_cpus.iq.int_inst_queue_reads   4267770745                       # Number of integer instruction queue reads
system.switch_cpus.iq.int_inst_queue_writes    869506646                       # Number of integer instruction queue writes
system.switch_cpus.iq.int_inst_queue_wakeup_accesses    820358964                       # Number of integer instruction queue wakeup accesses
system.switch_cpus.iq.fp_inst_queue_reads   2517261436                       # Number of floating instruction queue reads
system.switch_cpus.iq.fp_inst_queue_writes   1284223705                       # Number of floating instruction queue writes
system.switch_cpus.iq.fp_inst_queue_wakeup_accesses   1208706408                       # Number of floating instruction queue wakeup accesses
system.switch_cpus.iq.int_alu_accesses      823997918                       # Number of integer alu accesses
system.switch_cpus.iq.fp_alu_accesses      1289870691                       # Number of floating point alu accesses
system.switch_cpus.iew.lsq.thread0.forwLoads      5832865                       # Number of loads that had data forwarded from stores
system.switch_cpus.iew.lsq.thread0.invAddrLoads            0                       # Number of loads ignored due to an invalid address
system.switch_cpus.iew.lsq.thread0.squashedLoads     19676105                       # Number of loads squashed
system.switch_cpus.iew.lsq.thread0.ignoredResponses          624                       # Number of memory responses ignored because the instruction is squashed
system.switch_cpus.iew.lsq.thread0.memOrderViolation         2215                       # Number of memory ordering violations
system.switch_cpus.iew.lsq.thread0.squashedStores      4359853                       # Number of stores squashed
system.switch_cpus.iew.lsq.thread0.invAddrSwpfs            0                       # Number of software prefetches ignored due to an invalid address
system.switch_cpus.iew.lsq.thread0.blockedLoads            0                       # Number of blocked loads due to partial load-store forwarding
system.switch_cpus.iew.lsq.thread0.rescheduledLoads          340                       # Number of loads that were rescheduled
system.switch_cpus.iew.lsq.thread0.cacheBlocked     10314908                       # Number of times an access to memory failed due to the cache being blocked
system.switch_cpus.iew.iewIdleCycles                0                       # Number of cycles IEW is idle
system.switch_cpus.iew.iewSquashCycles       12904824                       # Number of cycles IEW is squashing
system.switch_cpus.iew.iewBlockCycles      1425814057                       # Number of cycles IEW is blocking
system.switch_cpus.iew.iewUnblockCycles      24390992                       # Number of cycles IEW is unblocking
system.switch_cpus.iew.iewDispatchedInsts   2077567083                       # Number of instructions dispatched to IQ
system.switch_cpus.iew.iewDispSquashedInsts     28917119                       # Number of squashed instructions skipped by dispatch
system.switch_cpus.iew.iewDispLoadInsts     409150465                       # Number of dispatched load instructions
system.switch_cpus.iew.iewDispStoreInsts    131758341                       # Number of dispatched store instructions
system.switch_cpus.iew.iewDispNonSpecInsts          237                       # Number of dispatched non-speculative instructions
system.switch_cpus.iew.iewIQFullEvents       13541948                       # Number of times the IQ has become full, causing a stall
system.switch_cpus.iew.iewLSQFullEvents        203484                       # Number of times the LSQ has become full, causing a stall
system.switch_cpus.iew.memOrderViolationEvents         2215                       # Number of memory order violations
system.switch_cpus.iew.predictedTakenIncorrect       400833                       # Number of branches that were predicted taken incorrectly
system.switch_cpus.iew.predictedNotTakenIncorrect         7805                       # Number of branches that were predicted not taken incorrectly
system.switch_cpus.iew.branchMispredicts       408638                       # Number of branch mispredicts detected at execute
system.switch_cpus.iew.iewExecutedInsts    2041973281                       # Number of executed instructions
system.switch_cpus.iew.iewExecLoadInsts     404764130                       # Number of load instructions executed
system.switch_cpus.iew.iewExecSquashedInsts      3081250                       # Number of squashed instructions skipped in execute
system.switch_cpus.iew.exec_swp                     0                       # number of swp insts executed
system.switch_cpus.iew.exec_nop                695881                       # number of nop insts executed
system.switch_cpus.iew.exec_refs            532746365                       # number of memory reference insts executed
system.switch_cpus.iew.exec_branches        102183737                       # Number of branches executed
system.switch_cpus.iew.exec_stores          127982235                       # Number of stores executed
system.switch_cpus.iew.exec_rate             0.700223                       # Inst execution rate
system.switch_cpus.iew.wb_sent             2030816673                       # cumulative count of insts sent to commit
system.switch_cpus.iew.wb_count            2029065372                       # cumulative count of insts written-back
system.switch_cpus.iew.wb_producers        1368147406                       # num instructions producing a value
system.switch_cpus.iew.wb_consumers        1822820748                       # num instructions consuming a value
system.switch_cpus.iew.wb_penalized                 0                       # number of instrctions required to write to 'other' IQ
system.switch_cpus.iew.wb_rate               0.695797                       # insts written-back per cycle
system.switch_cpus.iew.wb_fanout             0.750566                       # average fanout of values written-back
system.switch_cpus.iew.wb_penalized_rate            0                       # fraction of instructions written-back that wrote to 'other' IQ
system.switch_cpus.commit.commitSquashedInsts     73712963                       # The number of squashed insts skipped by commit
system.switch_cpus.commit.commitNonSpecStalls          450                       # The number of times commit has been forced to stall to communicate backwards
system.switch_cpus.commit.branchMispredicts       405139                       # The number of times a branch was mispredicted
system.switch_cpus.commit.committed_per_cycle::samples   2605513322                       # Number of insts commited each cycle
system.switch_cpus.commit.committed_per_cycle::mean     0.767855                       # Number of insts commited each cycle
system.switch_cpus.commit.committed_per_cycle::stdev     2.009436                       # Number of insts commited each cycle
system.switch_cpus.commit.committed_per_cycle::underflows            0      0.00%      0.00% # Number of insts commited each cycle
system.switch_cpus.commit.committed_per_cycle::0   2109932552     80.98%     80.98% # Number of insts commited each cycle
system.switch_cpus.commit.committed_per_cycle::1    144923348      5.56%     86.54% # Number of insts commited each cycle
system.switch_cpus.commit.committed_per_cycle::2     76290635      2.93%     89.47% # Number of insts commited each cycle
system.switch_cpus.commit.committed_per_cycle::3     44320963      1.70%     91.17% # Number of insts commited each cycle
system.switch_cpus.commit.committed_per_cycle::4     33599299      1.29%     92.46% # Number of insts commited each cycle
system.switch_cpus.commit.committed_per_cycle::5     18742468      0.72%     93.18% # Number of insts commited each cycle
system.switch_cpus.commit.committed_per_cycle::6     10970822      0.42%     93.60% # Number of insts commited each cycle
system.switch_cpus.commit.committed_per_cycle::7     57610509      2.21%     95.81% # Number of insts commited each cycle
system.switch_cpus.commit.committed_per_cycle::8    109122726      4.19%    100.00% # Number of insts commited each cycle
system.switch_cpus.commit.committed_per_cycle::overflows            0      0.00%    100.00% # Number of insts commited each cycle
system.switch_cpus.commit.committed_per_cycle::min_value            0                       # Number of insts commited each cycle
system.switch_cpus.commit.committed_per_cycle::max_value            8                       # Number of insts commited each cycle
system.switch_cpus.commit.committed_per_cycle::total   2605513322                       # Number of insts commited each cycle
system.switch_cpus.commit.committedInsts   2000657346                       # Number of instructions committed
system.switch_cpus.commit.committedOps     2000657346                       # Number of ops (including micro ops) committed
system.switch_cpus.commit.swp_count                 0                       # Number of s/w prefetches committed
system.switch_cpus.commit.refs              516872820                       # Number of memory references committed
system.switch_cpus.commit.loads             389474332                       # Number of loads committed
system.switch_cpus.commit.membars                 224                       # Number of memory barriers committed
system.switch_cpus.commit.branches           99903220                       # Number of branches committed
system.switch_cpus.commit.fp_insts         1203315135                       # Number of committed floating point instructions.
system.switch_cpus.commit.int_insts        1309260647                       # Number of committed integer instructions.
system.switch_cpus.commit.function_calls        18358                       # Number of function calls committed.
system.switch_cpus.commit.bw_lim_events     109122726                       # number cycles where commit BW limit reached
system.switch_cpus.commit.bw_limited                0                       # number of insts not committed due to BW limits
system.switch_cpus.rob.rob_reads           4567760128                       # The number of ROB reads
system.switch_cpus.rob.rob_writes          4161645602                       # The number of ROB writes
system.switch_cpus.timesIdled                 3761999                       # Number of times that the entire CPU went into an idle state and unscheduled itself
system.switch_cpus.idleCycles               297757820                       # Total number of cycles that the CPU has spent unscheduled due to idling
system.switch_cpus.committedInsts          2000000000                       # Number of Instructions Simulated
system.switch_cpus.committedOps            2000000000                       # Number of Ops (including micro ops) Simulated
system.switch_cpus.committedInsts_total    2000000000                       # Number of Instructions Simulated
system.switch_cpus.cpi                       1.458088                       # CPI: Cycles Per Instruction
system.switch_cpus.cpi_total                 1.458088                       # CPI: Total CPI of All Threads
system.switch_cpus.ipc                       0.685830                       # IPC: Instructions Per Cycle
system.switch_cpus.ipc_total                 0.685830                       # IPC: Total IPC of All Threads
system.switch_cpus.int_regfile_reads       1620652653                       # number of integer regfile reads
system.switch_cpus.int_regfile_writes       758847768                       # number of integer regfile writes
system.switch_cpus.fp_regfile_reads        1606234065                       # number of floating regfile reads
system.switch_cpus.fp_regfile_writes       1040268349                       # number of floating regfile writes
system.switch_cpus.misc_regfile_reads            4054                       # number of misc regfile reads
system.switch_cpus.misc_regfile_writes            500                       # number of misc regfile writes
system.l2.tags.numFaultyBlocks_VDD1                 0                       # number of faulty blocks in the cache at VDD1 (lowest)
system.l2.tags.numFaultyBlocks_VDD2                 0                       # number of faulty blocks in the cache at VDD2 (mid)
system.l2.tags.numFaultyBlocks_VDD3                 0                       # number of faulty blocks in the cache at VDD3 (highest)
system.l2.tags.blockFaultRate_VDD1                  0                       # Proportion of faulty blocks in the cache at VDD1
system.l2.tags.blockFaultRate_VDD2                  0                       # Proportion of faulty blocks in the cache at VDD2
system.l2.tags.blockFaultRate_VDD3                  0                       # Proportion of faulty blocks in the cache at VDD3
system.l2.tags.cycles_VDD1                          0                       # Total number of cycles spent on VDD1
system.l2.tags.cycles_VDD2                          0                       # Total number of cycles spent on VDD2
system.l2.tags.cycles_VDD3                 3916295268                       # Total number of cycles spent on VDD3
system.l2.tags.accessEnergy_VDD1                    0                       # Total dynamic energy dissipated at VDD1 in nJ
system.l2.tags.accessEnergy_VDD2                    0                       # Total dynamic energy dissipated at VDD2 in nJ
system.l2.tags.accessEnergy_VDD3         11253943.706376                       # Total dynamic energy dissipated at VDD3 in nJ
system.l2.tags.accessEnergy_tot          11253943.706376                       # Total dynamic energy dissipated in nJ
system.l2.tags.transitionsTo_VDD1                   0                       # Total number of transitions to VDD1
system.l2.tags.transitionsTo_VDD2                   0                       # Total number of transitions to VDD2
system.l2.tags.transitionsTo_VDD3                   0                       # Total number of transitions to VDD3
system.l2.tags.avgConsecutiveCycles_VDD1          nan                       # Average number of consecutive cycles spent at VDD1
system.l2.tags.avgConsecutiveCycles_VDD2          nan                       # Average number of consecutive cycles spent at VDD2
system.l2.tags.avgConsecutiveCycles_VDD3          inf                       # Average number of consecutive cycles spent at VDD3
system.l2.tags.proportionExecTime_VDD1              0                       # Proportion of total execution time that was spent at VDD1 for this cache
system.l2.tags.proportionExecTime_VDD2              0                       # Proportion of total execution time that was spent at VDD2 for this cache
system.l2.tags.proportionExecTime_VDD3              1                       # Proportion of total execution time that was spent at VDD3 for this cache
system.l2.tags.staticPower_avg           19638.771150                       # Average static power of this cache over the entire execution
system.l2.tags.numUnchangedFaultyTo_VDD1            0                       # Total number of unchanged (faulty) blocks during DPCS transition to VDD1
system.l2.tags.numUnchangedFaultyTo_VDD2            0                       # Total number of unchanged (faulty) blocks during DPCS transition to VDD2
system.l2.tags.numUnchangedFaultyTo_VDD3            0                       # Total number of unchanged (faulty) blocks during DPCS transition to VDD3
system.l2.tags.numFaultyWriteBacksTo_VDD1            0                       # Total number of faulty writebacks during DPCS transition to VDD1
system.l2.tags.numFaultyWriteBacksTo_VDD2            0                       # Total number of faulty writebacks during DPCS transition to VDD2
system.l2.tags.numFaultyWriteBacksTo_VDD3            0                       # Total number of faulty writebacks during DPCS transition to VDD3
system.l2.tags.numInvalidateOnlyTo_VDD1             0                       # Total number of blocks only invalidated during DPCS transition to VDD1
system.l2.tags.numInvalidateOnlyTo_VDD2             0                       # Total number of blocks only invalidated during DPCS transition to VDD2
system.l2.tags.numInvalidateOnlyTo_VDD3             0                       # Total number of blocks only invalidated during DPCS transition to VDD3
system.l2.tags.numMadeAvailableTo_VDD1              0                       # Total number of blocks made available (faulty to non-faulty) during DPCS transition to VDD1
system.l2.tags.numMadeAvailableTo_VDD2              0                       # Total number of blocks made available (faulty to non-faulty) during DPCS transition to VDD2
system.l2.tags.numMadeAvailableTo_VDD3              0                       # Total number of blocks made available (faulty to non-faulty) during DPCS transition to VDD3
system.l2.tags.numUnchangedNotFaultyTo_VDD1            0                       # Total number of blocks unchanged (not faulty) during DPCS transition to VDD1
system.l2.tags.numUnchangedNotFaultyTo_VDD2            0                       # Total number of blocks unchanged (not faulty) during DPCS transition to VDD2
system.l2.tags.numUnchangedNotFaultyTo_VDD3            0                       # Total number of blocks unchanged (not faulty) during DPCS transition to VDD3
system.l2.tags.faultyWriteBackRateTo_VDD1          nan                       # Average number of writebacks caused by faulty blocks when changing to VDD1
system.l2.tags.faultyWriteBackRateTo_VDD2          nan                       # Average number of writebacks caused by faulty blocks when changing to VDD2
system.l2.tags.faultyWriteBackRateTo_VDD3          nan                       # Average number of writebacks caused by faulty blocks when changing to VDD3
system.l2.tags.replacements                  23036305                       # number of replacements
system.l2.tags.tagsinuse                 130514.168976                       # Cycle average of tags in use
system.l2.tags.total_refs                     3223012                       # Total number of references to valid blocks.
system.l2.tags.sampled_refs                  23166695                       # Sample count of references to valid blocks.
[...]
system.cpu.dcache.tags.proportionExecTime_VDD1            0                       # Proportion of total execution time that was spent at VDD1 for this cache
system.cpu.dcache.tags.proportionExecTime_VDD2            0                       # Proportion of total execution time that was spent at VDD2 for this cache
system.cpu.dcache.tags.proportionExecTime_VDD3            1                       # Proportion of total execution time that was spent at VDD3 for this cache
system.cpu.dcache.tags.staticPower_avg     673.950770                       # Average static power of this cache over the entire execution
system.cpu.dcache.tags.numUnchangedFaultyTo_VDD1            0                       # Total number of unchanged (faulty) blocks during DPCS transition to VDD1
system.cpu.dcache.tags.numUnchangedFaultyTo_VDD2            0                       # Total number of unchanged (faulty) blocks during DPCS transition to VDD2
system.cpu.dcache.tags.numUnchangedFaultyTo_VDD3            0                       # Total number of unchanged (faulty) blocks during DPCS transition to VDD3
system.cpu.dcache.tags.numFaultyWriteBacksTo_VDD1            0                       # Total number of faulty writebacks during DPCS transition to VDD1
system.cpu.dcache.tags.numFaultyWriteBacksTo_VDD2            0                       # Total number of faulty writebacks during DPCS transition to VDD2
system.cpu.dcache.tags.numFaultyWriteBacksTo_VDD3            0                       # Total number of faulty writebacks during DPCS transition to VDD3
system.cpu.dcache.tags.numInvalidateOnlyTo_VDD1            0                       # Total number of blocks only invalidated during DPCS transition to VDD1
system.cpu.dcache.tags.numInvalidateOnlyTo_VDD2            0                       # Total number of blocks only invalidated during DPCS transition to VDD2
system.cpu.dcache.tags.numInvalidateOnlyTo_VDD3            0                       # Total number of blocks only invalidated during DPCS transition to VDD3
system.cpu.dcache.tags.numMadeAvailableTo_VDD1            0                       # Total number of blocks made available (faulty to non-faulty) during DPCS transition to VDD1
system.cpu.dcache.tags.numMadeAvailableTo_VDD2            0                       # Total number of blocks made available (faulty to non-faulty) during DPCS transition to VDD2
system.cpu.dcache.tags.numMadeAvailableTo_VDD3            0                       # Total number of blocks made available (faulty to non-faulty) during DPCS transition to VDD3
system.cpu.dcache.tags.numUnchangedNotFaultyTo_VDD1            0                       # Total number of blocks unchanged (not faulty) during DPCS transition to VDD1
system.cpu.dcache.tags.numUnchangedNotFaultyTo_VDD2            0                       # Total number of blocks unchanged (not faulty) during DPCS transition to VDD2
system.cpu.dcache.tags.numUnchangedNotFaultyTo_VDD3            0                       # Total number of blocks unchanged (not faulty) during DPCS transition to VDD3
system.cpu.dcache.tags.faultyWriteBackRateTo_VDD1          nan                       # Average number of writebacks caused by faulty blocks when changing to VDD1
system.cpu.dcache.tags.faultyWriteBackRateTo_VDD2          nan                       # Average number of writebacks caused by faulty blocks when changing to VDD2
system.cpu.dcache.tags.faultyWriteBackRateTo_VDD3          nan                       # Average number of writebacks caused by faulty blocks when changing to VDD3
system.cpu.dcache.tags.replacements          25646468                       # number of replacements
system.cpu.dcache.tags.tagsinuse                 4096                       # Cycle average of tags in use
system.cpu.dcache.tags.total_refs           401079503                       # Total number of references to valid blocks.
system.cpu.dcache.tags.sampled_refs          25650564                       # Sample count of references to valid blocks.
system.cpu.dcache.tags.avg_refs             15.636284                       # Average number of references to valid blocks.
system.cpu.dcache.tags.warmup_cycle                 0                       # Cycle when the warmup percentage was hit.
system.cpu.dcache.tags.occ_blocks::switch_cpus.data  4082.583212                       # Average occupied blocks per requestor
system.cpu.dcache.tags.occ_blocks::cpu.data    13.416788                       # Average occupied blocks per requestor
system.cpu.dcache.tags.occ_percent::switch_cpus.data     0.996724                       # Average percentage of cache occupancy
system.cpu.dcache.tags.occ_percent::cpu.data     0.003276                       # Average percentage of cache occupancy
system.cpu.dcache.tags.occ_percent::total            1                       # Average percentage of cache occupancy
system.cpu.dcache.ReadReq_hits::switch_cpus.data    287109571                       # number of ReadReq hits
system.cpu.dcache.ReadReq_hits::total       287109571                       # number of ReadReq hits
system.cpu.dcache.WriteReq_hits::switch_cpus.data     94730019                       # number of WriteReq hits
system.cpu.dcache.WriteReq_hits::total       94730019                       # number of WriteReq hits
system.cpu.dcache.LoadLockedReq_hits::switch_cpus.data          223                       # number of LoadLockedReq hits
system.cpu.dcache.LoadLockedReq_hits::total          223                       # number of LoadLockedReq hits
system.cpu.dcache.StoreCondReq_hits::switch_cpus.data          224                       # number of StoreCondReq hits
system.cpu.dcache.StoreCondReq_hits::total          224                       # number of StoreCondReq hits
system.cpu.dcache.demand_hits::switch_cpus.data    381839590                       # number of demand (read+write) hits
system.cpu.dcache.demand_hits::total        381839590                       # number of demand (read+write) hits
system.cpu.dcache.overall_hits::switch_cpus.data    381839590                       # number of overall hits
system.cpu.dcache.overall_hits::total       381839590                       # number of overall hits
system.cpu.dcache.ReadReq_misses::switch_cpus.data    100241671                       # number of ReadReq misses
system.cpu.dcache.ReadReq_misses::total     100241671                       # number of ReadReq misses
system.cpu.dcache.WriteReq_misses::switch_cpus.data     32668242                       # number of WriteReq misses
system.cpu.dcache.WriteReq_misses::total     32668242                       # number of WriteReq misses
system.cpu.dcache.LoadLockedReq_misses::switch_cpus.data            1                       # number of LoadLockedReq misses
system.cpu.dcache.LoadLockedReq_misses::total            1                       # number of LoadLockedReq misses
system.cpu.dcache.demand_misses::switch_cpus.data    132909913                       # number of demand (read+write) misses
system.cpu.dcache.demand_misses::total      132909913                       # number of demand (read+write) misses
system.cpu.dcache.overall_misses::switch_cpus.data    132909913                       # number of overall misses
system.cpu.dcache.overall_misses::total     132909913                       # number of overall misses
system.cpu.dcache.ReadReq_miss_latency::switch_cpus.data 4791095112448                       # number of ReadReq miss cycles
system.cpu.dcache.ReadReq_miss_latency::total 4791095112448                       # number of ReadReq miss cycles
system.cpu.dcache.WriteReq_miss_latency::switch_cpus.data 1465438267788                       # number of WriteReq miss cycles
system.cpu.dcache.WriteReq_miss_latency::total 1465438267788                       # number of WriteReq miss cycles
system.cpu.dcache.LoadLockedReq_miss_latency::switch_cpus.data        79237                       # number of LoadLockedReq miss cycles
system.cpu.dcache.LoadLockedReq_miss_latency::total        79237                       # number of LoadLockedReq miss cycles
system.cpu.dcache.demand_miss_latency::switch_cpus.data 6256533380236                       # number of demand (read+write) miss cycles
system.cpu.dcache.demand_miss_latency::total 6256533380236                       # number of demand (read+write) miss cycles
system.cpu.dcache.overall_miss_latency::switch_cpus.data 6256533380236                       # number of overall miss cycles
system.cpu.dcache.overall_miss_latency::total 6256533380236                       # number of overall miss cycles
system.cpu.dcache.ReadReq_accesses::switch_cpus.data    387351242                       # number of ReadReq accesses(hits+misses)
system.cpu.dcache.ReadReq_accesses::total    387351242                       # number of ReadReq accesses(hits+misses)
system.cpu.dcache.WriteReq_accesses::switch_cpus.data    127398261                       # number of WriteReq accesses(hits+misses)
system.cpu.dcache.WriteReq_accesses::total    127398261                       # number of WriteReq accesses(hits+misses)
system.cpu.dcache.LoadLockedReq_accesses::switch_cpus.data          224                       # number of LoadLockedReq accesses(hits+misses)
system.cpu.dcache.LoadLockedReq_accesses::total          224                       # number of LoadLockedReq accesses(hits+misses)
system.cpu.dcache.StoreCondReq_accesses::switch_cpus.data          224                       # number of StoreCondReq accesses(hits+misses)
system.cpu.dcache.StoreCondReq_accesses::total          224                       # number of StoreCondReq accesses(hits+misses)
system.cpu.dcache.demand_accesses::switch_cpus.data    514749503                       # number of demand (read+write) accesses
system.cpu.dcache.demand_accesses::total    514749503                       # number of demand (read+write) accesses
system.cpu.dcache.overall_accesses::switch_cpus.data    514749503                       # number of overall (read+write) accesses
system.cpu.dcache.overall_accesses::total    514749503                       # number of overall (read+write) accesses
system.cpu.dcache.ReadReq_miss_rate::switch_cpus.data     0.258788                       # miss rate for ReadReq accesses
system.cpu.dcache.ReadReq_miss_rate::total     0.258788                       # miss rate for ReadReq accesses
system.cpu.dcache.WriteReq_miss_rate::switch_cpus.data     0.256426                       # miss rate for WriteReq accesses
system.cpu.dcache.WriteReq_miss_rate::total     0.256426                       # miss rate for WriteReq accesses
system.cpu.dcache.LoadLockedReq_miss_rate::switch_cpus.data     0.004464                       # miss rate for LoadLockedReq accesses
system.cpu.dcache.LoadLockedReq_miss_rate::total     0.004464                       # miss rate for LoadLockedReq accesses
system.cpu.dcache.demand_miss_rate::switch_cpus.data     0.258203                       # miss rate for demand accesses
system.cpu.dcache.demand_miss_rate::total     0.258203                       # miss rate for demand accesses
system.cpu.dcache.overall_miss_rate::switch_cpus.data     0.258203                       # miss rate for overall accesses
system.cpu.dcache.overall_miss_rate::total     0.258203                       # miss rate for overall accesses
system.cpu.dcache.ReadReq_avg_miss_latency::switch_cpus.data 47795.443398                       # average ReadReq miss latency
system.cpu.dcache.ReadReq_avg_miss_latency::total 47795.443398                       # average ReadReq miss latency
system.cpu.dcache.WriteReq_avg_miss_latency::switch_cpus.data 44858.191873                       # average WriteReq miss latency
system.cpu.dcache.WriteReq_avg_miss_latency::total 44858.191873                       # average WriteReq miss latency
system.cpu.dcache.LoadLockedReq_avg_miss_latency::switch_cpus.data        79237                       # average LoadLockedReq miss latency
system.cpu.dcache.LoadLockedReq_avg_miss_latency::total        79237                       # average LoadLockedReq miss latency
system.cpu.dcache.demand_avg_miss_latency::switch_cpus.data 47073.489396                       # average overall miss latency
system.cpu.dcache.demand_avg_miss_latency::total 47073.489396                       # average overall miss latency
system.cpu.dcache.overall_avg_miss_latency::switch_cpus.data 47073.489396                       # average overall miss latency
system.cpu.dcache.overall_avg_miss_latency::total 47073.489396                       # average overall miss latency
system.cpu.dcache.blocked_cycles::no_mshrs     66135039                       # number of cycles access was blocked
system.cpu.dcache.blocked_cycles::no_targets           81                       # number of cycles access was blocked
system.cpu.dcache.blocked::no_mshrs           1297388                       # number of cycles access was blocked
system.cpu.dcache.blocked::no_targets               1                       # number of cycles access was blocked
system.cpu.dcache.avg_blocked_cycles::no_mshrs    50.975529                       # average number of cycles each access was blocked
system.cpu.dcache.avg_blocked_cycles::no_targets           81                       # average number of cycles each access was blocked
system.cpu.dcache.fast_writes                       0                       # number of fast writes performed
system.cpu.dcache.cache_copies                      0                       # number of cache copies performed
system.cpu.dcache.writebacks::writebacks      5454675                       # number of writebacks
system.cpu.dcache.writebacks::total           5454675                       # number of writebacks
system.cpu.dcache.ReadReq_mshr_hits::switch_cpus.data     79471917                       # number of ReadReq MSHR hits
system.cpu.dcache.ReadReq_mshr_hits::total     79471917                       # number of ReadReq MSHR hits
system.cpu.dcache.WriteReq_mshr_hits::switch_cpus.data     27791527                       # number of WriteReq MSHR hits
system.cpu.dcache.WriteReq_mshr_hits::total     27791527                       # number of WriteReq MSHR hits
system.cpu.dcache.demand_mshr_hits::switch_cpus.data    107263444                       # number of demand (read+write) MSHR hits
system.cpu.dcache.demand_mshr_hits::total    107263444                       # number of demand (read+write) MSHR hits
system.cpu.dcache.overall_mshr_hits::switch_cpus.data    107263444                       # number of overall MSHR hits
system.cpu.dcache.overall_mshr_hits::total    107263444                       # number of overall MSHR hits
system.cpu.dcache.ReadReq_mshr_misses::switch_cpus.data     20769754                       # number of ReadReq MSHR misses
system.cpu.dcache.ReadReq_mshr_misses::total     20769754                       # number of ReadReq MSHR misses
system.cpu.dcache.WriteReq_mshr_misses::switch_cpus.data      4876715                       # number of WriteReq MSHR misses
system.cpu.dcache.WriteReq_mshr_misses::total      4876715                       # number of WriteReq MSHR misses
system.cpu.dcache.LoadLockedReq_mshr_misses::switch_cpus.data            1                       # number of LoadLockedReq MSHR misses
system.cpu.dcache.LoadLockedReq_mshr_misses::total            1                       # number of LoadLockedReq MSHR misses
system.cpu.dcache.demand_mshr_misses::switch_cpus.data     25646469                       # number of demand (read+write) MSHR misses
system.cpu.dcache.demand_mshr_misses::total     25646469                       # number of demand (read+write) MSHR misses
system.cpu.dcache.overall_mshr_misses::switch_cpus.data     25646469                       # number of overall MSHR misses
system.cpu.dcache.overall_mshr_misses::total     25646469                       # number of overall MSHR misses
system.cpu.dcache.ReadReq_mshr_miss_latency::switch_cpus.data 1020503297718                       # number of ReadReq MSHR miss cycles
system.cpu.dcache.ReadReq_mshr_miss_latency::total 1020503297718                       # number of ReadReq MSHR miss cycles
system.cpu.dcache.WriteReq_mshr_miss_latency::switch_cpus.data 311559218634                       # number of WriteReq MSHR miss cycles
system.cpu.dcache.WriteReq_mshr_miss_latency::total 311559218634                       # number of WriteReq MSHR miss cycles
system.cpu.dcache.LoadLockedReq_mshr_miss_latency::switch_cpus.data        77273                       # number of LoadLockedReq MSHR miss cycles
system.cpu.dcache.LoadLockedReq_mshr_miss_latency::total        77273                       # number of LoadLockedReq MSHR miss cycles
system.cpu.dcache.demand_mshr_miss_latency::switch_cpus.data 1332062516352                       # number of demand (read+write) MSHR miss cycles
system.cpu.dcache.demand_mshr_miss_latency::total 1332062516352                       # number of demand (read+write) MSHR miss cycles
system.cpu.dcache.overall_mshr_miss_latency::switch_cpus.data 1332062516352                       # number of overall MSHR miss cycles
system.cpu.dcache.overall_mshr_miss_latency::total 1332062516352                       # number of overall MSHR miss cycles
system.cpu.dcache.ReadReq_mshr_miss_rate::switch_cpus.data     0.053620                       # mshr miss rate for ReadReq accesses
system.cpu.dcache.ReadReq_mshr_miss_rate::total     0.053620                       # mshr miss rate for ReadReq accesses
system.cpu.dcache.WriteReq_mshr_miss_rate::switch_cpus.data     0.038279                       # mshr miss rate for WriteReq accesses
system.cpu.dcache.WriteReq_mshr_miss_rate::total     0.038279                       # mshr miss rate for WriteReq accesses
system.cpu.dcache.LoadLockedReq_mshr_miss_rate::switch_cpus.data     0.004464                       # mshr miss rate for LoadLockedReq accesses
system.cpu.dcache.LoadLockedReq_mshr_miss_rate::total     0.004464                       # mshr miss rate for LoadLockedReq accesses
system.cpu.dcache.demand_mshr_miss_rate::switch_cpus.data     0.049823                       # mshr miss rate for demand accesses
system.cpu.dcache.demand_mshr_miss_rate::total     0.049823                       # mshr miss rate for demand accesses
system.cpu.dcache.overall_mshr_miss_rate::switch_cpus.data     0.049823                       # mshr miss rate for overall accesses
system.cpu.dcache.overall_mshr_miss_rate::total     0.049823                       # mshr miss rate for overall accesses
system.cpu.dcache.ReadReq_avg_mshr_miss_latency::switch_cpus.data 49134.106149                       # average ReadReq mshr miss latency
system.cpu.dcache.ReadReq_avg_mshr_miss_latency::total 49134.106149                       # average ReadReq mshr miss latency
system.cpu.dcache.WriteReq_avg_mshr_miss_latency::switch_cpus.data 63887.108153                       # average WriteReq mshr miss latency
system.cpu.dcache.WriteReq_avg_mshr_miss_latency::total 63887.108153                       # average WriteReq mshr miss latency
system.cpu.dcache.LoadLockedReq_avg_mshr_miss_latency::switch_cpus.data        77273                       # average LoadLockedReq mshr miss latency
system.cpu.dcache.LoadLockedReq_avg_mshr_miss_latency::total        77273                       # average LoadLockedReq mshr miss latency
system.cpu.dcache.demand_avg_mshr_miss_latency::switch_cpus.data 51939.411868                       # average overall mshr miss latency
system.cpu.dcache.demand_avg_mshr_miss_latency::total 51939.411868                       # average overall mshr miss latency
system.cpu.dcache.overall_avg_mshr_miss_latency::switch_cpus.data 51939.411868                       # average overall mshr miss latency
system.cpu.dcache.overall_avg_mshr_miss_latency::total 51939.411868                       # average overall mshr miss latency
system.cpu.dcache.no_allocate_misses                0                       # Number of misses that were no-allocate

---------- End Simulation Statistics   ----------
