
---------- Begin Simulation Statistics ----------
sim_seconds                                  0.515729                       # Number of seconds simulated
sim_ticks                                515728860228                       # Number of ticks simulated
final_tick                               848815295373                       # Number of ticks from beginning of simulation (restored from checkpoints and never reset)
sim_freq                                 1000000000000                       # Frequency of simulated ticks
host_inst_rate                                 192275                       # Simulator instruction rate (inst/s)
host_op_rate                                   192275                       # Simulator op (including micro ops) rate (op/s)
host_tick_rate                               33054000                       # Simulator tick rate (ticks/s)
host_mem_usage                                2359920                       # Number of bytes of host memory used
host_seconds                                 15602.62                       # Real time elapsed on the host
sim_insts                                  3000000002                       # Number of instructions simulated
sim_ops                                    3000000002                       # Number of ops (including micro ops) simulated
system.mem_ctrls.bytes_read::switch_cpus.inst        57152                       # Number of bytes read from this memory
system.mem_ctrls.bytes_read::switch_cpus.data     11214080                       # Number of bytes read from this memory
system.mem_ctrls.bytes_read::total           11271232                       # Number of bytes read from this memory
system.mem_ctrls.bytes_inst_read::switch_cpus.inst        57152                       # Number of instructions bytes read from this memory
system.mem_ctrls.bytes_inst_read::total         57152                       # Number of instructions bytes read from this memory
system.mem_ctrls.bytes_written::writebacks     10516800                       # Number of bytes written to this memory
system.mem_ctrls.bytes_written::total        10516800                       # Number of bytes written to this memory
system.mem_ctrls.num_reads::switch_cpus.inst          893                       # Number of read requests responded to by this memory
system.mem_ctrls.num_reads::switch_cpus.data       175220                       # Number of read requests responded to by this memory
system.mem_ctrls.num_reads::total              176113                       # Number of read requests responded to by this memory
system.mem_ctrls.num_writes::writebacks        164325                       # Number of write requests responded to by this memory
system.mem_ctrls.num_writes::total             164325                       # Number of write requests responded to by this memory
system.mem_ctrls.bw_read::switch_cpus.inst       110818                       # Total read bandwidth from this memory (bytes/s)
system.mem_ctrls.bw_read::switch_cpus.data     21744139                       # Total read bandwidth from this memory (bytes/s)
system.mem_ctrls.bw_read::total              21854957                       # Total read bandwidth from this memory (bytes/s)
system.mem_ctrls.bw_inst_read::switch_cpus.inst       110818                       # Instruction read bandwidth from this memory (bytes/s)
system.mem_ctrls.bw_inst_read::total           110818                       # Instruction read bandwidth from this memory (bytes/s)
system.mem_ctrls.bw_write::writebacks        20392111                       # Write bandwidth from this memory (bytes/s)
system.mem_ctrls.bw_write::total             20392111                       # Write bandwidth from this memory (bytes/s)
system.mem_ctrls.bw_total::writebacks        20392111                       # Total bandwidth to/from this memory (bytes/s)
system.mem_ctrls.bw_total::switch_cpus.inst       110818                       # Total bandwidth to/from this memory (bytes/s)
system.mem_ctrls.bw_total::switch_cpus.data     21744139                       # Total bandwidth to/from this memory (bytes/s)
system.mem_ctrls.bw_total::total             42247068                       # Total bandwidth to/from this memory (bytes/s)
system.mem_ctrls.readReqs                      176113                       # Total number of read requests accepted by DRAM controller
system.mem_ctrls.writeReqs                     164325                       # Total number of write requests accepted by DRAM controller
system.mem_ctrls.readBursts                    176113                       # Total number of DRAM read bursts. Each DRAM read request translates to either one or multiple DRAM read bursts
system.mem_ctrls.writeBursts                   164325                       # Total number of DRAM write bursts. Each DRAM write request translates to either one or multiple DRAM write bursts
system.mem_ctrls.bytesRead                   11271232                       # Total number of bytes read from memory
system.mem_ctrls.bytesWritten                10516800                       # Total number of bytes written to memory
system.mem_ctrls.bytesConsumedRd             11271232                       # bytesRead derated as per pkt->getSize()
system.mem_ctrls.bytesConsumedWr             10516800                       # bytesWritten derated as per pkt->getSize()
system.mem_ctrls.servicedByWrQ                      8                       # Number of DRAM read bursts serviced by write Q
system.mem_ctrls.neitherReadNorWrite                0                       # Reqs where no action is needed
system.mem_ctrls.perBankRdReqs::0               11220                       # Track reads on a per bank basis
system.mem_ctrls.perBankRdReqs::1               11018                       # Track reads on a per bank basis
system.mem_ctrls.perBankRdReqs::2               10999                       # Track reads on a per bank basis
system.mem_ctrls.perBankRdReqs::3               11260                       # Track reads on a per bank basis
system.mem_ctrls.perBankRdReqs::4               11046                       # Track reads on a per bank basis
system.mem_ctrls.perBankRdReqs::5               10927                       # Track reads on a per bank basis
system.mem_ctrls.perBankRdReqs::6               10922                       # Track reads on a per bank basis
system.mem_ctrls.perBankRdReqs::7               10981                       # Track reads on a per bank basis
system.mem_ctrls.perBankRdReqs::8               11178                       # Track reads on a per bank basis
system.mem_ctrls.perBankRdReqs::9               11072                       # Track reads on a per bank basis
system.mem_ctrls.perBankRdReqs::10              11053                       # Track reads on a per bank basis
system.mem_ctrls.perBankRdReqs::11              10865                       # Track reads on a per bank basis
system.mem_ctrls.perBankRdReqs::12              11213                       # Track reads on a per bank basis
system.mem_ctrls.perBankRdReqs::13              10568                       # Track reads on a per bank basis
system.mem_ctrls.perBankRdReqs::14              10714                       # Track reads on a per bank basis
system.mem_ctrls.perBankRdReqs::15              11069                       # Track reads on a per bank basis
system.mem_ctrls.perBankWrReqs::0               10427                       # Track writes on a per bank basis
system.mem_ctrls.perBankWrReqs::1               10209                       # Track writes on a per bank basis
system.mem_ctrls.perBankWrReqs::2               10272                       # Track writes on a per bank basis
system.mem_ctrls.perBankWrReqs::3               10474                       # Track writes on a per bank basis
system.mem_ctrls.perBankWrReqs::4               10350                       # Track writes on a per bank basis
system.mem_ctrls.perBankWrReqs::5               10248                       # Track writes on a per bank basis
system.mem_ctrls.perBankWrReqs::6               10217                       # Track writes on a per bank basis
system.mem_ctrls.perBankWrReqs::7               10345                       # Track writes on a per bank basis
system.mem_ctrls.perBankWrReqs::8               10444                       # Track writes on a per bank basis
system.mem_ctrls.perBankWrReqs::9               10239                       # Track writes on a per bank basis
system.mem_ctrls.perBankWrReqs::10              10316                       # Track writes on a per bank basis
system.mem_ctrls.perBankWrReqs::11              10104                       # Track writes on a per bank basis
system.mem_ctrls.perBankWrReqs::12              10321                       # Track writes on a per bank basis
system.mem_ctrls.perBankWrReqs::13               9917                       # Track writes on a per bank basis
system.mem_ctrls.perBankWrReqs::14              10082                       # Track writes on a per bank basis
system.mem_ctrls.perBankWrReqs::15              10360                       # Track writes on a per bank basis
system.mem_ctrls.numRdRetry                         0                       # Number of times rd buffer was full causing retry
system.mem_ctrls.numWrRetry                        20                       # Number of times wr buffer was full causing retry
system.mem_ctrls.totGap                  515725890201                       # Total gap between requests
system.mem_ctrls.readPktSize::0                     0                       # Categorize read packet sizes
system.mem_ctrls.readPktSize::1                     0                       # Categorize read packet sizes
system.mem_ctrls.readPktSize::2                     0                       # Categorize read packet sizes
system.mem_ctrls.readPktSize::3                     0                       # Categorize read packet sizes
system.mem_ctrls.readPktSize::4                     0                       # Categorize read packet sizes
system.mem_ctrls.readPktSize::5                     0                       # Categorize read packet sizes
system.mem_ctrls.readPktSize::6                176113                       # Categorize read packet sizes
system.mem_ctrls.writePktSize::0                    0                       # Categorize write packet sizes
system.mem_ctrls.writePktSize::1                    0                       # Categorize write packet sizes
system.mem_ctrls.writePktSize::2                    0                       # Categorize write packet sizes
system.mem_ctrls.writePktSize::3                    0                       # Categorize write packet sizes
system.mem_ctrls.writePktSize::4                    0                       # Categorize write packet sizes
system.mem_ctrls.writePktSize::5                    0                       # Categorize write packet sizes
system.mem_ctrls.writePktSize::6               164325                       # Categorize write packet sizes
system.mem_ctrls.rdQLenPdf::0                  155958                       # What read queue length does an incoming req see
system.mem_ctrls.rdQLenPdf::1                   19452                       # What read queue length does an incoming req see
system.mem_ctrls.rdQLenPdf::2                     666                       # What read queue length does an incoming req see
system.mem_ctrls.rdQLenPdf::3                      27                       # What read queue length does an incoming req see
system.mem_ctrls.rdQLenPdf::4                       2                       # What read queue length does an incoming req see
system.mem_ctrls.rdQLenPdf::5                       0                       # What read queue length does an incoming req see
system.mem_ctrls.rdQLenPdf::6                       0                       # What read queue length does an incoming req see
system.mem_ctrls.rdQLenPdf::7                       0                       # What read queue length does an incoming req see
system.mem_ctrls.rdQLenPdf::8                       0                       # What read queue length does an incoming req see
system.mem_ctrls.rdQLenPdf::9                       0                       # What read queue length does an incoming req see
system.mem_ctrls.rdQLenPdf::10                      0                       # What read queue length does an incoming req see
system.mem_ctrls.rdQLenPdf::11                      0                       # What read queue length does an incoming req see
system.mem_ctrls.rdQLenPdf::12                      0                       # What read queue length does an incoming req see
system.mem_ctrls.rdQLenPdf::13                      0                       # What read queue length does an incoming req see
system.mem_ctrls.rdQLenPdf::14                      0                       # What read queue length does an incoming req see
system.mem_ctrls.rdQLenPdf::15                      0                       # What read queue length does an incoming req see
system.mem_ctrls.rdQLenPdf::16                      0                       # What read queue length does an incoming req see
system.mem_ctrls.rdQLenPdf::17                      0                       # What read queue length does an incoming req see
system.mem_ctrls.rdQLenPdf::18                      0                       # What read queue length does an incoming req see
system.mem_ctrls.rdQLenPdf::19                      0                       # What read queue length does an incoming req see
system.mem_ctrls.rdQLenPdf::20                      0                       # What read queue length does an incoming req see
system.mem_ctrls.rdQLenPdf::21                      0                       # What read queue length does an incoming req see
system.mem_ctrls.rdQLenPdf::22                      0                       # What read queue length does an incoming req see
system.mem_ctrls.rdQLenPdf::23                      0                       # What read queue length does an incoming req see
system.mem_ctrls.rdQLenPdf::24                      0                       # What read queue length does an incoming req see
system.mem_ctrls.rdQLenPdf::25                      0                       # What read queue length does an incoming req see
system.mem_ctrls.rdQLenPdf::26                      0                       # What read queue length does an incoming req see
system.mem_ctrls.rdQLenPdf::27                      0                       # What read queue length does an incoming req see
system.mem_ctrls.rdQLenPdf::28                      0                       # What read queue length does an incoming req see
system.mem_ctrls.rdQLenPdf::29                      0                       # What read queue length does an incoming req see
system.mem_ctrls.rdQLenPdf::30                      0                       # What read queue length does an incoming req see
system.mem_ctrls.rdQLenPdf::31                      0                       # What read queue length does an incoming req see
system.mem_ctrls.wrQLenPdf::0                    6685                       # What write queue length does an incoming req see
system.mem_ctrls.wrQLenPdf::1                    7111                       # What write queue length does an incoming req see
system.mem_ctrls.wrQLenPdf::2                    7114                       # What write queue length does an incoming req see
system.mem_ctrls.wrQLenPdf::3                    7116                       # What write queue length does an incoming req see
system.mem_ctrls.wrQLenPdf::4                    7116                       # What write queue length does an incoming req see
system.mem_ctrls.wrQLenPdf::5                    7118                       # What write queue length does an incoming req see
system.mem_ctrls.wrQLenPdf::6                    7120                       # What write queue length does an incoming req see
system.mem_ctrls.wrQLenPdf::7                    7121                       # What write queue length does an incoming req see
system.mem_ctrls.wrQLenPdf::8                    7123                       # What write queue length does an incoming req see
system.mem_ctrls.wrQLenPdf::9                    7145                       # What write queue length does an incoming req see
system.mem_ctrls.wrQLenPdf::10                   7145                       # What write queue length does an incoming req see
system.mem_ctrls.wrQLenPdf::11                   7145                       # What write queue length does an incoming req see
system.mem_ctrls.wrQLenPdf::12                   7145                       # What write queue length does an incoming req see
system.mem_ctrls.wrQLenPdf::13                   7144                       # What write queue length does an incoming req see
system.mem_ctrls.wrQLenPdf::14                   7144                       # What write queue length does an incoming req see
system.mem_ctrls.wrQLenPdf::15                   7144                       # What write queue length does an incoming req see
system.mem_ctrls.wrQLenPdf::16                   7144                       # What write queue length does an incoming req see
system.mem_ctrls.wrQLenPdf::17                   7144                       # What write queue length does an incoming req see
system.mem_ctrls.wrQLenPdf::18                   7144                       # What write queue length does an incoming req see
system.mem_ctrls.wrQLenPdf::19                   7144                       # What write queue length does an incoming req see
system.mem_ctrls.wrQLenPdf::20                   7144                       # What write queue length does an incoming req see
system.mem_ctrls.wrQLenPdf::21                   7144                       # What write queue length does an incoming req see
system.mem_ctrls.wrQLenPdf::22                   7144                       # What write queue length does an incoming req see
system.mem_ctrls.wrQLenPdf::23                    460                       # What write queue length does an incoming req see
system.mem_ctrls.wrQLenPdf::24                     34                       # What write queue length does an incoming req see
system.mem_ctrls.wrQLenPdf::25                     31                       # What write queue length does an incoming req see
system.mem_ctrls.wrQLenPdf::26                     29                       # What write queue length does an incoming req see
system.mem_ctrls.wrQLenPdf::27                     29                       # What write queue length does an incoming req see
system.mem_ctrls.wrQLenPdf::28                     27                       # What write queue length does an incoming req see
system.mem_ctrls.wrQLenPdf::29                     25                       # What write queue length does an incoming req see
system.mem_ctrls.wrQLenPdf::30                     24                       # What write queue length does an incoming req see
system.mem_ctrls.wrQLenPdf::31                     22                       # What write queue length does an incoming req see
system.mem_ctrls.bytesPerActivate::samples       237304                       # Bytes accessed per row activation
system.mem_ctrls.bytesPerActivate::mean     91.808111                       # Bytes accessed per row activation
system.mem_ctrls.bytesPerActivate::gmean    77.193601                       # Bytes accessed per row activation
system.mem_ctrls.bytesPerActivate::stdev    89.367767                       # Bytes accessed per row activation
system.mem_ctrls.bytesPerActivate::64          197224     83.11%     83.11% # Bytes accessed per row activation
system.mem_ctrls.bytesPerActivate::128          21215      8.94%     92.05% # Bytes accessed per row activation
system.mem_ctrls.bytesPerActivate::192           5966      2.51%     94.56% # Bytes accessed per row activation
system.mem_ctrls.bytesPerActivate::256           3072      1.29%     95.86% # Bytes accessed per row activation
system.mem_ctrls.bytesPerActivate::320           2358      0.99%     96.85% # Bytes accessed per row activation
system.mem_ctrls.bytesPerActivate::384           2194      0.92%     97.78% # Bytes accessed per row activation
system.mem_ctrls.bytesPerActivate::448           1921      0.81%     98.59% # Bytes accessed per row activation
system.mem_ctrls.bytesPerActivate::512           1401      0.59%     99.18% # Bytes accessed per row activation
system.mem_ctrls.bytesPerActivate::576            841      0.35%     99.53% # Bytes accessed per row activation
system.mem_ctrls.bytesPerActivate::640            450      0.19%     99.72% # Bytes accessed per row activation
system.mem_ctrls.bytesPerActivate::704            249      0.10%     99.83% # Bytes accessed per row activation
system.mem_ctrls.bytesPerActivate::768            145      0.06%     99.89% # Bytes accessed per row activation
system.mem_ctrls.bytesPerActivate::832             79      0.03%     99.92% # Bytes accessed per row activation
system.mem_ctrls.bytesPerActivate::896             59      0.02%     99.95% # Bytes accessed per row activation
system.mem_ctrls.bytesPerActivate::960             26      0.01%     99.96% # Bytes accessed per row activation
system.mem_ctrls.bytesPerActivate::1024            14      0.01%     99.96% # Bytes accessed per row activation
system.mem_ctrls.bytesPerActivate::1088            15      0.01%     99.97% # Bytes accessed per row activation
system.mem_ctrls.bytesPerActivate::1152            17      0.01%     99.98% # Bytes accessed per row activation
system.mem_ctrls.bytesPerActivate::1216             8      0.00%     99.98% # Bytes accessed per row activation
system.mem_ctrls.bytesPerActivate::1280            10      0.00%     99.98% # Bytes accessed per row activation
system.mem_ctrls.bytesPerActivate::1344            10      0.00%     99.99% # Bytes accessed per row activation
system.mem_ctrls.bytesPerActivate::1408             9      0.00%     99.99% # Bytes accessed per row activation
system.mem_ctrls.bytesPerActivate::1472             6      0.00%     99.99% # Bytes accessed per row activation
system.mem_ctrls.bytesPerActivate::1536             1      0.00%     99.99% # Bytes accessed per row activation
system.mem_ctrls.bytesPerActivate::1600             1      0.00%     99.99% # Bytes accessed per row activation
system.mem_ctrls.bytesPerActivate::1664             3      0.00%    100.00% # Bytes accessed per row activation
system.mem_ctrls.bytesPerActivate::1728             2      0.00%    100.00% # Bytes accessed per row activation
system.mem_ctrls.bytesPerActivate::1856             1      0.00%    100.00% # Bytes accessed per row activation
system.mem_ctrls.bytesPerActivate::1984             1      0.00%    100.00% # Bytes accessed per row activation
system.mem_ctrls.bytesPerActivate::2048             1      0.00%    100.00% # Bytes accessed per row activation
system.mem_ctrls.bytesPerActivate::2304             1      0.00%    100.00% # Bytes accessed per row activation
system.mem_ctrls.bytesPerActivate::2560             2      0.00%    100.00% # Bytes accessed per row activation
system.mem_ctrls.bytesPerActivate::2752             1      0.00%    100.00% # Bytes accessed per row activation
system.mem_ctrls.bytesPerActivate::3712             1      0.00%    100.00% # Bytes accessed per row activation
system.mem_ctrls.bytesPerActivate::total       237304                       # Bytes accessed per row activation
system.mem_ctrls.totQLat                   1713904130                       # Total cycles spent in queuing delays
system.mem_ctrls.totMemAccLat              7592760380                       # Sum of mem lat for all requests
system.mem_ctrls.totBusLat                  880525000                       # Total cycles spent in databus access
system.mem_ctrls.totBankLat                4998331250                       # Total cycles spent in bank access
system.mem_ctrls.avgQLat                      9732.29                       # Average queueing delay per request
system.mem_ctrls.avgBankLat                  28382.68                       # Average bank access latency per request
system.mem_ctrls.avgBusLat                    5000.00                       # Average bus latency per request
system.mem_ctrls.avgMemAccLat                43114.96                       # Average memory access latency
system.mem_ctrls.avgRdBW                        21.85                       # Average achieved read bandwidth in MB/s
system.mem_ctrls.avgWrBW                        20.39                       # Average achieved write bandwidth in MB/s
system.mem_ctrls.avgConsumedRdBW                21.85                       # Average consumed read bandwidth in MB/s
system.mem_ctrls.avgConsumedWrBW                20.39                       # Average consumed write bandwidth in MB/s
system.mem_ctrls.peakBW                      12800.00                       # Theoretical peak bandwidth in MB/s
system.mem_ctrls.busUtil                         0.33                       # Data bus utilization in percentage
system.mem_ctrls.avgRdQLen                       0.01                       # Average read queue length over time
system.mem_ctrls.avgWrQLen                      10.92                       # Average write queue length over time
system.mem_ctrls.readRowHits                    79435                       # Number of row buffer hits during reads
system.mem_ctrls.writeRowHits                   23678                       # Number of row buffer hits during writes
system.mem_ctrls.readRowHitRate                 45.11                       # Row buffer hit rate for reads
system.mem_ctrls.writeRowHitRate                14.41                       # Row buffer hit rate for writes
system.mem_ctrls.avgGap                    1514889.32                       # Average gap between requests
system.membus.throughput                     42247068                       # Throughput (bytes/s)
system.membus.trans_dist::ReadReq              158448                       # Transaction distribution
system.membus.trans_dist::ReadResp             158448                       # Transaction distribution
system.membus.trans_dist::Writeback            164325                       # Transaction distribution
system.membus.trans_dist::ReadExReq             17665                       # Transaction distribution
system.membus.trans_dist::ReadExResp            17665                       # Transaction distribution
system.membus.pkt_count_system.l2.mem_side::system.mem_ctrls.port       516551                       # Packet count per connected master and slave (bytes)
system.membus.pkt_count::total                 516551                       # Packet count per connected master and slave (bytes)
system.membus.tot_pkt_size_system.l2.mem_side::system.mem_ctrls.port     21788032                       # Cumulative packet size per connected master and slave (bytes)
system.membus.tot_pkt_size::total            21788032                       # Cumulative packet size per connected master and slave (bytes)
system.membus.data_through_bus               21788032                       # Total data (bytes)
system.membus.snoop_data_through_bus                0                       # Total snoop data (bytes)
system.membus.reqLayer0.occupancy           551138271                       # Layer occupancy (ticks)
system.membus.reqLayer0.utilization               0.1                       # Layer utilization (%)
system.membus.respLayer1.occupancy          546000040                       # Layer occupancy (ticks)
system.membus.respLayer1.utilization              0.1                       # Layer utilization (%)
system.switch_cpus.branchPred.lookups       470026553                       # Number of BP lookups
system.switch_cpus.branchPred.condPredicted    394626033                       # Number of conditional branches predicted
system.switch_cpus.branchPred.condIncorrect     38923004                       # Number of conditional branches incorrect
system.switch_cpus.branchPred.BTBLookups    256914078                       # Number of BTB lookups
system.switch_cpus.branchPred.BTBHits       220944670                       # Number of BTB hits
system.switch_cpus.branchPred.BTBCorrect            0                       # Number of correct BTB predictions (this stat may not work properly.
system.switch_cpus.branchPred.BTBHitPct     85.999441                       # BTB Hit Percentage
system.switch_cpus.branchPred.usedRAS        22621987                       # Number of times the RAS was used to get a target.
system.switch_cpus.branchPred.RASInCorrect       782466                       # Number of incorrect RAS predictions.
system.switch_cpus.dtb.fetch_hits                   0                       # ITB hits
system.switch_cpus.dtb.fetch_misses                 0                       # ITB misses
system.switch_cpus.dtb.fetch_acv                    0                       # ITB acv
system.switch_cpus.dtb.fetch_accesses               0                       # ITB accesses
system.switch_cpus.dtb.read_hits            536162271                       # DTB read hits
system.switch_cpus.dtb.read_misses            1720177                       # DTB read misses
system.switch_cpus.dtb.read_acv                    14                       # DTB read access violations
system.switch_cpus.dtb.read_accesses        537882448                       # DTB read accesses
system.switch_cpus.dtb.write_hits           222471698                       # DTB write hits
system.switch_cpus.dtb.write_misses            518534                       # DTB write misses
system.switch_cpus.dtb.write_acv                    2                       # DTB write access violations
system.switch_cpus.dtb.write_accesses       222990232                       # DTB write accesses
system.switch_cpus.dtb.data_hits            758633969                       # DTB hits
system.switch_cpus.dtb.data_misses            2238711                       # DTB misses
system.switch_cpus.dtb.data_acv                    16                       # DTB access violations
system.switch_cpus.dtb.data_accesses        760872680                       # DTB accesses
system.switch_cpus.itb.fetch_hits           405209505                       # ITB hits
system.switch_cpus.itb.fetch_misses            722684                       # ITB misses
system.switch_cpus.itb.fetch_acv                    0                       # ITB acv
system.switch_cpus.itb.fetch_accesses       405932189                       # ITB accesses
system.switch_cpus.itb.read_hits                    0                       # DTB read hits
system.switch_cpus.itb.read_misses                  0                       # DTB read misses
system.switch_cpus.itb.read_acv                     0                       # DTB read access violations
system.switch_cpus.itb.read_accesses                0                       # DTB read accesses
system.switch_cpus.itb.write_hits                   0                       # DTB write hits
system.switch_cpus.itb.write_misses                 0                       # DTB write misses
system.switch_cpus.itb.write_acv                    0                       # DTB write access violations
system.switch_cpus.itb.write_accesses               0                       # DTB write accesses
system.switch_cpus.itb.data_hits                    0                       # DTB hits
system.switch_cpus.itb.data_misses                  0                       # DTB misses
system.switch_cpus.itb.data_acv                     0                       # DTB access violations
system.switch_cpus.itb.data_accesses                0                       # DTB accesses
system.cpu.workload.num_syscalls                    0                       # Number of system calls
system.switch_cpus.numCycles               1548735316                       # number of cpu cycles simulated
system.switch_cpus.numWorkItemsStarted              0                       # number of work items this cpu started
system.switch_cpus.numWorkItemsCompleted            0                       # number of work items this cpu completed
system.switch_cpus.fetch.icacheStallCycles    812620937                       # Number of cycles fetch is stalled on an Icache miss
system.switch_cpus.fetch.Insts             3029345487                       # Number of instructions fetch has processed
system.switch_cpus.fetch.Branches           470026553                       # Number of branches that fetch encountered
system.switch_cpus.fetch.predictedBranches    243566657                       # Number of branches that fetch has predicted taken
system.switch_cpus.fetch.Cycles             560147745                       # Number of cycles fetch has run and was not squashing or blocked
system.switch_cpus.fetch.SquashCycles       140297575                       # Number of cycles fetch has spent squashing
system.switch_cpus.fetch.BlockedCycles       59249253                       # Number of cycles fetch has spent blocked
system.switch_cpus.fetch.MiscStallCycles        91491                       # Number of cycles fetch has spent waiting on interrupts, or bad addresses, or out of MSHRs
system.switch_cpus.fetch.PendingTrapStallCycles      4938113                       # Number of stall cycles due to pending traps
system.switch_cpus.fetch.IcacheWaitRetryStallCycles           40                       # Number of stall cycles due to full MSHR
system.switch_cpus.fetch.CacheLines         405209505                       # Number of cache lines fetched
system.switch_cpus.fetch.IcacheSquashes      21675513                       # Number of outstanding Icache misses that were squashed
system.switch_cpus.fetch.rateDist::samples   1537653928                       # Number of instructions fetched each cycle (Total)
system.switch_cpus.fetch.rateDist::mean      1.970109                       # Number of instructions fetched each cycle (Total)
system.switch_cpus.fetch.rateDist::stdev     3.036022                       # Number of instructions fetched each cycle (Total)
system.switch_cpus.fetch.rateDist::underflows            0      0.00%      0.00% # Number of instructions fetched each cycle (Total)
system.switch_cpus.fetch.rateDist::0        977506183     63.57%     63.57% # Number of instructions fetched each cycle (Total)
system.switch_cpus.fetch.rateDist::1         54075619      3.52%     67.09% # Number of instructions fetched each cycle (Total)
system.switch_cpus.fetch.rateDist::2         53857215      3.50%     70.59% # Number of instructions fetched each cycle (Total)
system.switch_cpus.fetch.rateDist::3         56821788      3.70%     74.29% # Number of instructions fetched each cycle (Total)
system.switch_cpus.fetch.rateDist::4         65245074      4.24%     78.53% # Number of instructions fetched each cycle (Total)
system.switch_cpus.fetch.rateDist::5         28252665      1.84%     80.37% # Number of instructions fetched each cycle (Total)
system.switch_cpus.fetch.rateDist::6         46832238      3.05%     83.41% # Number of instructions fetched each cycle (Total)
system.switch_cpus.fetch.rateDist::7         26652143      1.73%     85.15% # Number of instructions fetched each cycle (Total)
system.switch_cpus.fetch.rateDist::8        228411003     14.85%    100.00% # Number of instructions fetched each cycle (Total)
system.switch_cpus.fetch.rateDist::overflows            0      0.00%    100.00% # Number of instructions fetched each cycle (Total)
system.switch_cpus.fetch.rateDist::min_value            0                       # Number of instructions fetched each cycle (Total)
system.switch_cpus.fetch.rateDist::max_value            8                       # Number of instructions fetched each cycle (Total)
system.switch_cpus.fetch.rateDist::total   1537653928                       # Number of instructions fetched each cycle (Total)
system.switch_cpus.fetch.branchRate          0.303491                       # Number of branch fetches per cycle
system.switch_cpus.fetch.rate                1.956012                       # Number of inst fetches per cycle
system.switch_cpus.decode.IdleCycles        839923703                       # Number of cycles decode is idle
system.switch_cpus.decode.BlockedCycles      54706546                       # Number of cycles decode is blocked
system.switch_cpus.decode.RunCycles         541070156                       # Number of cycles decode is running
system.switch_cpus.decode.UnblockCycles       3358128                       # Number of cycles decode is unblocking
system.switch_cpus.decode.SquashCycles       98595394                       # Number of cycles decode is squashing
system.switch_cpus.decode.BranchResolved     50309498                       # Number of times decode resolved a branch
system.switch_cpus.decode.BranchMispred       2078887                       # Number of times decode detected a branch misprediction
system.switch_cpus.decode.DecodedInsts     2930836395                       # Number of instructions handled by decode
system.switch_cpus.decode.SquashedInsts       5589532                       # Number of squashed instructions handled by decode
system.switch_cpus.rename.SquashCycles       98595394                       # Number of cycles rename is squashing
system.switch_cpus.rename.IdleCycles        858347968                       # Number of cycles rename is idle
system.switch_cpus.rename.BlockCycles         8156910                       # Number of cycles rename is blocking
system.switch_cpus.rename.serializeStallCycles     34240018                       # count of cycles rename stalled for serializing inst
system.switch_cpus.rename.RunCycles         525858416                       # Number of cycles rename is running
system.switch_cpus.rename.UnblockCycles      12455221                       # Number of cycles rename is unblocking
system.switch_cpus.rename.RenamedInsts     2854865382                       # Number of instructions processed by rename
system.switch_cpus.rename.ROBFullEvents          6112                       # Number of times rename has blocked due to ROB full
system.switch_cpus.rename.IQFullEvents         927068                       # Number of times rename has blocked due to IQ full
system.switch_cpus.rename.LSQFullEvents       7728976                       # Number of times rename has blocked due to LSQ full
system.switch_cpus.rename.RenamedOperands   2103759553                       # Number of destination operands rename has renamed
system.switch_cpus.rename.RenameLookups    3789457551                       # Number of register rename lookups that rename has made
system.switch_cpus.rename.int_rename_lookups   3728417607                       # Number of integer rename lookups
system.switch_cpus.rename.fp_rename_lookups     61039944                       # Number of floating rename lookups
system.switch_cpus.rename.CommittedMaps    1497606792                       # Number of HB maps that are committed
system.switch_cpus.rename.UndoneMaps        606152734                       # Number of HB maps that are undone due to squashing
system.switch_cpus.rename.serializingInsts      1637599                       # count of serializing insts renamed
system.switch_cpus.rename.tempSerializingInsts        10609                       # count of temporary serializing insts renamed
system.switch_cpus.rename.skidInsts          37976375                       # count of insts added to the skid buffer
system.switch_cpus.memDep0.insertedLoads    584805334                       # Number of loads inserted to the mem dependence unit.
system.switch_cpus.memDep0.insertedStores    243527278                       # Number of stores inserted to the mem dependence unit.
system.switch_cpus.memDep0.conflictingLoads      6774625                       # Number of conflicting loads.
system.switch_cpus.memDep0.conflictingStores      5454531                       # Number of conflicting stores.
system.switch_cpus.iq.iqInstsAdded         2628777727                       # Number of instructions added to the IQ (excludes non-spec)
system.switch_cpus.iq.iqNonSpecInstsAdded        16349                       # Number of non-speculative instructions added to the IQ
system.switch_cpus.iq.iqInstsIssued        2421895244                       # Number of instructions issued
system.switch_cpus.iq.iqSquashedInstsIssued      7876876                       # Number of squashed instructions issued
system.switch_cpus.iq.iqSquashedInstsExamined    602896934                       # Number of squashed instructions iterated over during squash; mainly for profiling
system.switch_cpus.iq.iqSquashedOperandsExamined    370115239                       # Number of squashed operands that are examined and possibly removed from graph
system.switch_cpus.iq.iqSquashedNonSpecRemoved         7429                       # Number of squashed non-spec instructions that were removed
system.switch_cpus.iq.issued_per_cycle::samples   1537653928                       # Number of insts issued each cycle
system.switch_cpus.iq.issued_per_cycle::mean     1.575059                       # Number of insts issued each cycle
system.switch_cpus.iq.issued_per_cycle::stdev     1.773633                       # Number of insts issued each cycle
system.switch_cpus.iq.issued_per_cycle::underflows            0      0.00%      0.00% # Number of insts issued each cycle
system.switch_cpus.iq.issued_per_cycle::0    598002045     38.89%     38.89% # Number of insts issued each cycle
system.switch_cpus.iq.issued_per_cycle::1    309526182     20.13%     59.02% # Number of insts issued each cycle
system.switch_cpus.iq.issued_per_cycle::2    233840373     15.21%     74.23% # Number of insts issued each cycle
system.switch_cpus.iq.issued_per_cycle::3    156316101     10.17%     84.39% # Number of insts issued each cycle
system.switch_cpus.iq.issued_per_cycle::4    107015120      6.96%     91.35% # Number of insts issued each cycle
system.switch_cpus.iq.issued_per_cycle::5     73255670      4.76%     96.12% # Number of insts issued each cycle
system.switch_cpus.iq.issued_per_cycle::6     39232943      2.55%     98.67% # Number of insts issued each cycle
system.switch_cpus.iq.issued_per_cycle::7     17720427      1.15%     99.82% # Number of insts issued each cycle
system.switch_cpus.iq.issued_per_cycle::8      2745067      0.18%    100.00% # Number of insts issued each cycle
system.switch_cpus.iq.issued_per_cycle::overflows            0      0.00%    100.00% # Number of insts issued each cycle
system.switch_cpus.iq.issued_per_cycle::min_value            0                       # Number of insts issued each cycle
system.switch_cpus.iq.issued_per_cycle::max_value            8                       # Number of insts issued each cycle
system.switch_cpus.iq.issued_per_cycle::total   1537653928                       # Number of insts issued each cycle
system.switch_cpus.iq.fu_full::No_OpClass            0      0.00%      0.00% # attempts to use FU when none available
system.switch_cpus.iq.fu_full::IntAlu         3093471     10.38%     10.38% # attempts to use FU when none available
system.switch_cpus.iq.fu_full::IntMult              0      0.00%     10.38% # attempts to use FU when none available
system.switch_cpus.iq.fu_full::IntDiv               0      0.00%     10.38% # attempts to use FU when none available
system.switch_cpus.iq.fu_full::FloatAdd           213      0.00%     10.38% # attempts to use FU when none available
system.switch_cpus.iq.fu_full::FloatCmp           311      0.00%     10.39% # attempts to use FU when none available
system.switch_cpus.iq.fu_full::FloatCvt             0      0.00%     10.39% # attempts to use FU when none available
system.switch_cpus.iq.fu_full::FloatMult            0      0.00%     10.39% # attempts to use FU when none available
system.switch_cpus.iq.fu_full::FloatDiv             0      0.00%     10.39% # attempts to use FU when none available
system.switch_cpus.iq.fu_full::FloatSqrt            0      0.00%     10.39% # attempts to use FU when none available
system.switch_cpus.iq.fu_full::SimdAdd              0      0.00%     10.39% # attempts to use FU when none available
system.switch_cpus.iq.fu_full::SimdAddAcc            0      0.00%     10.39% # attempts to use FU when none available
system.switch_cpus.iq.fu_full::SimdAlu              0      0.00%     10.39% # attempts to use FU when none available
system.switch_cpus.iq.fu_full::SimdCmp              0      0.00%     10.39% # attempts to use FU when none available
system.switch_cpus.iq.fu_full::SimdCvt              0      0.00%     10.39% # attempts to use FU when none available
system.switch_cpus.iq.fu_full::SimdMisc             0      0.00%     10.39% # attempts to use FU when none available
system.switch_cpus.iq.fu_full::SimdMult             0      0.00%     10.39% # attempts to use FU when none available
system.switch_cpus.iq.fu_full::SimdMultAcc            0      0.00%     10.39% # attempts to use FU when none available
system.switch_cpus.iq.fu_full::SimdShift            0      0.00%     10.39% # attempts to use FU when none available
system.switch_cpus.iq.fu_full::SimdShiftAcc            0      0.00%     10.39% # attempts to use FU when none available
system.switch_cpus.iq.fu_full::SimdSqrt             0      0.00%     10.39% # attempts to use FU when none available
system.switch_cpus.iq.fu_full::SimdFloatAdd            0      0.00%     10.39% # attempts to use FU when none available
system.switch_cpus.iq.fu_full::SimdFloatAlu            0      0.00%     10.39% # attempts to use FU when none available
system.switch_cpus.iq.fu_full::SimdFloatCmp            0      0.00%     10.39% # attempts to use FU when none available
system.switch_cpus.iq.fu_full::SimdFloatCvt            0      0.00%     10.39% # attempts to use FU when none available
system.switch_cpus.iq.fu_full::SimdFloatDiv            0      0.00%     10.39% # attempts to use FU when none available
system.switch_cpus.iq.fu_full::SimdFloatMisc            0      0.00%     10.39% # attempts to use FU when none available
system.switch_cpus.iq.fu_full::SimdFloatMult            0      0.00%     10.39% # attempts to use FU when none available
system.switch_cpus.iq.fu_full::SimdFloatMultAcc            0      0.00%     10.39% # attempts to use FU when none available
system.switch_cpus.iq.fu_full::SimdFloatSqrt            0      0.00%     10.39% # attempts to use FU when none available
system.switch_cpus.iq.fu_full::MemRead       14695207     49.33%     59.71% # attempts to use FU when none available
system.switch_cpus.iq.fu_full::MemWrite      12001592     40.29%    100.00% # attempts to use FU when none available
system.switch_cpus.iq.fu_full::IprAccess            0      0.00%    100.00% # attempts to use FU when none available
system.switch_cpus.iq.fu_full::InstPrefetch            0      0.00%    100.00% # attempts to use FU when none available
system.switch_cpus.iq.FU_type_0::No_OpClass       698636      0.03%      0.03% # Type of FU issued
system.switch_cpus.iq.FU_type_0::IntAlu    1610656408     66.50%     66.53% # Type of FU issued
system.switch_cpus.iq.FU_type_0::IntMult      1175231      0.05%     66.58% # Type of FU issued
system.switch_cpus.iq.FU_type_0::IntDiv             0      0.00%     66.58% # Type of FU issued
system.switch_cpus.iq.FU_type_0::FloatAdd     13564362      0.56%     67.14% # Type of FU issued
system.switch_cpus.iq.FU_type_0::FloatCmp      9286180      0.38%     67.52% # Type of FU issued
system.switch_cpus.iq.FU_type_0::FloatCvt      4256503      0.18%     67.70% # Type of FU issued
system.switch_cpus.iq.FU_type_0::FloatMult           34      0.00%     67.70% # Type of FU issued
system.switch_cpus.iq.FU_type_0::FloatDiv       407632      0.02%     67.72% # Type of FU issued
system.switch_cpus.iq.FU_type_0::FloatSqrt            0      0.00%     67.72% # Type of FU issued
system.switch_cpus.iq.FU_type_0::SimdAdd            0      0.00%     67.72% # Type of FU issued
system.switch_cpus.iq.FU_type_0::SimdAddAcc            0      0.00%     67.72% # Type of FU issued
system.switch_cpus.iq.FU_type_0::SimdAlu            0      0.00%     67.72% # Type of FU issued
system.switch_cpus.iq.FU_type_0::SimdCmp            0      0.00%     67.72% # Type of FU issued
system.switch_cpus.iq.FU_type_0::SimdCvt            0      0.00%     67.72% # Type of FU issued
system.switch_cpus.iq.FU_type_0::SimdMisc            0      0.00%     67.72% # Type of FU issued
system.switch_cpus.iq.FU_type_0::SimdMult            0      0.00%     67.72% # Type of FU issued
system.switch_cpus.iq.FU_type_0::SimdMultAcc            0      0.00%     67.72% # Type of FU issued
system.switch_cpus.iq.FU_type_0::SimdShift            0      0.00%     67.72% # Type of FU issued
system.switch_cpus.iq.FU_type_0::SimdShiftAcc            0      0.00%     67.72% # Type of FU issued
system.switch_cpus.iq.FU_type_0::SimdSqrt            0      0.00%     67.72% # Type of FU issued
system.switch_cpus.iq.FU_type_0::SimdFloatAdd            0      0.00%     67.72% # Type of FU issued
system.switch_cpus.iq.FU_type_0::SimdFloatAlu            0      0.00%     67.72% # Type of FU issued
system.switch_cpus.iq.FU_type_0::SimdFloatCmp            0      0.00%     67.72% # Type of FU issued
system.switch_cpus.iq.FU_type_0::SimdFloatCvt            0      0.00%     67.72% # Type of FU issued
system.switch_cpus.iq.FU_type_0::SimdFloatDiv            0      0.00%     67.72% # Type of FU issued
system.switch_cpus.iq.FU_type_0::SimdFloatMisc            0      0.00%     67.72% # Type of FU issued
system.switch_cpus.iq.FU_type_0::SimdFloatMult            0      0.00%     67.72% # Type of FU issued
system.switch_cpus.iq.FU_type_0::SimdFloatMultAcc            0      0.00%     67.72% # Type of FU issued
system.switch_cpus.iq.FU_type_0::SimdFloatSqrt            0      0.00%     67.72% # Type of FU issued
system.switch_cpus.iq.FU_type_0::MemRead    553369837     22.85%     90.57% # Type of FU issued
system.switch_cpus.iq.FU_type_0::MemWrite    228480421      9.43%    100.00% # Type of FU issued
system.switch_cpus.iq.FU_type_0::IprAccess            0      0.00%    100.00% # Type of FU issued
system.switch_cpus.iq.FU_type_0::InstPrefetch            0      0.00%    100.00% # Type of FU issued
system.switch_cpus.iq.FU_type_0::total     2421895244                       # Type of FU issued
system.switch_cpus.iq.rate                   1.563789                       # Inst issue rate
system.switch_cpus.iq.fu_busy_cnt            29790794                       # FU busy when requested
system.switch_cpus.iq.fu_busy_rate           0.012301                       # FU busy rate (busy events/executed inst)
system.switch_cpus.iq.int_inst_queue_reads   6349622664                       # Number of integer instruction queue reads
system.switch_cpus.iq.int_inst_queue_writes   3185888614                       # Number of integer instruction queue writes
system.switch_cpus.iq.int_inst_queue_wakeup_accesses   2293110399                       # Number of integer instruction queue wakeup accesses
system.switch_cpus.iq.fp_inst_queue_reads     69489418                       # Number of floating instruction queue reads
system.switch_cpus.iq.fp_inst_queue_writes     45934143                       # Number of floating instruction queue writes
system.switch_cpus.iq.fp_inst_queue_wakeup_accesses     33657615                       # Number of floating instruction queue wakeup accesses
system.switch_cpus.iq.int_alu_accesses     2416240076                       # Number of integer alu accesses
system.switch_cpus.iq.fp_alu_accesses        34747326                       # Number of floating point alu accesses
system.switch_cpus.iew.lsq.thread0.forwLoads     20294370                       # Number of loads that had data forwarded from stores
system.switch_cpus.iew.lsq.thread0.invAddrLoads            0                       # Number of loads ignored due to an invalid address
system.switch_cpus.iew.lsq.thread0.squashedLoads    147540017                       # Number of loads squashed
system.switch_cpus.iew.lsq.thread0.ignoredResponses       355099                       # Number of memory responses ignored because the instruction is squashed
system.switch_cpus.iew.lsq.thread0.memOrderViolation       144096                       # Number of memory ordering violations
system.switch_cpus.iew.lsq.thread0.squashedStores     41129746                       # Number of stores squashed
system.switch_cpus.iew.lsq.thread0.invAddrSwpfs            0                       # Number of software prefetches ignored due to an invalid address
system.switch_cpus.iew.lsq.thread0.blockedLoads            0                       # Number of blocked loads due to partial load-store forwarding
system.switch_cpus.iew.lsq.thread0.rescheduledLoads        32788                       # Number of loads that were rescheduled
system.switch_cpus.iew.lsq.thread0.cacheBlocked         3445                       # Number of times an access to memory failed due to the cache being blocked
system.switch_cpus.iew.iewIdleCycles                0                       # Number of cycles IEW is idle
system.switch_cpus.iew.iewSquashCycles       98595394                       # Number of cycles IEW is squashing
system.switch_cpus.iew.iewBlockCycles         1978313                       # Number of cycles IEW is blocking
system.switch_cpus.iew.iewUnblockCycles        545924                       # Number of cycles IEW is unblocking
system.switch_cpus.iew.iewDispatchedInsts   2692663562                       # Number of instructions dispatched to IQ
system.switch_cpus.iew.iewDispSquashedInsts     20706696                       # Number of squashed instructions skipped by dispatch
system.switch_cpus.iew.iewDispLoadInsts     584805334                       # Number of dispatched load instructions
system.switch_cpus.iew.iewDispStoreInsts    243527278                       # Number of dispatched store instructions
system.switch_cpus.iew.iewDispNonSpecInsts         9868                       # Number of dispatched non-speculative instructions
system.switch_cpus.iew.iewIQFullEvents         495928                       # Number of times the IQ has become full, causing a stall
system.switch_cpus.iew.iewLSQFullEvents          3209                       # Number of times the LSQ has become full, causing a stall
system.switch_cpus.iew.memOrderViolationEvents       144096                       # Number of memory order violations
system.switch_cpus.iew.predictedTakenIncorrect     21506012                       # Number of branches that were predicted taken incorrectly
system.switch_cpus.iew.predictedNotTakenIncorrect     19558499                       # Number of branches that were predicted not taken incorrectly
system.switch_cpus.iew.branchMispredicts     41064511                       # Number of branch mispredicts detected at execute
system.switch_cpus.iew.iewExecutedInsts    2374015673                       # Number of executed instructions
system.switch_cpus.iew.iewExecLoadInsts     537898003                       # Number of load instructions executed
system.switch_cpus.iew.iewExecSquashedInsts     47879567                       # Number of squashed instructions skipped in execute
system.switch_cpus.iew.exec_swp                     0                       # number of swp insts executed
system.switch_cpus.iew.exec_nop              63869486                       # number of nop insts executed
system.switch_cpus.iew.exec_refs            760888555                       # number of memory reference insts executed
system.switch_cpus.iew.exec_branches        358811788                       # Number of branches executed
system.switch_cpus.iew.exec_stores          222990552                       # Number of stores executed
system.switch_cpus.iew.exec_rate             1.532874                       # Inst execution rate
system.switch_cpus.iew.wb_sent             2338592511                       # cumulative count of insts sent to commit
system.switch_cpus.iew.wb_count            2326768014                       # cumulative count of insts written-back
system.switch_cpus.iew.wb_producers        1307641864                       # num instructions producing a value
system.switch_cpus.iew.wb_consumers        1650852283                       # num instructions consuming a value
system.switch_cpus.iew.wb_penalized                 0                       # number of instrctions required to write to 'other' IQ
system.switch_cpus.iew.wb_rate               1.502366                       # insts written-back per cycle
system.switch_cpus.iew.wb_fanout             0.792101                       # average fanout of values written-back
system.switch_cpus.iew.wb_penalized_rate            0                       # fraction of instructions written-back that wrote to 'other' IQ
system.switch_cpus.commit.commitSquashedInsts    624568624                       # The number of squashed insts skipped by commit
system.switch_cpus.commit.commitNonSpecStalls         8920                       # The number of times commit has been forced to stall to communicate backwards
system.switch_cpus.commit.branchMispredicts     36912049                       # The number of times a branch was mispredicted
system.switch_cpus.commit.committed_per_cycle::samples   1439058534                       # Number of insts commited each cycle
system.switch_cpus.commit.committed_per_cycle::mean     1.425837                       # Number of insts commited each cycle
system.switch_cpus.commit.committed_per_cycle::stdev     2.295698                       # Number of insts commited each cycle
system.switch_cpus.commit.committed_per_cycle::underflows            0      0.00%      0.00% # Number of insts commited each cycle
system.switch_cpus.commit.committed_per_cycle::0    755535387     52.50%     52.50% # Number of insts commited each cycle
system.switch_cpus.commit.committed_per_cycle::1    308997124     21.47%     73.97% # Number of insts commited each cycle
system.switch_cpus.commit.committed_per_cycle::2    100655442      6.99%     80.97% # Number of insts commited each cycle
system.switch_cpus.commit.committed_per_cycle::3     63507414      4.41%     85.38% # Number of insts commited each cycle
system.switch_cpus.commit.committed_per_cycle::4     41571988      2.89%     88.27% # Number of insts commited each cycle
system.switch_cpus.commit.committed_per_cycle::5     31676540      2.20%     90.47% # Number of insts commited each cycle
system.switch_cpus.commit.committed_per_cycle::6     26264467      1.83%     92.30% # Number of insts commited each cycle
system.switch_cpus.commit.committed_per_cycle::7     18026393      1.25%     93.55% # Number of insts commited each cycle
system.switch_cpus.commit.committed_per_cycle::8     92823779      6.45%    100.00% # Number of insts commited each cycle
system.switch_cpus.commit.committed_per_cycle::overflows            0      0.00%    100.00% # Number of insts commited each cycle
system.switch_cpus.commit.committed_per_cycle::min_value            0                       # Number of insts commited each cycle
system.switch_cpus.commit.committed_per_cycle::max_value            8                       # Number of insts commited each cycle
system.switch_cpus.commit.committed_per_cycle::total   1439058534                       # Number of insts commited each cycle
system.switch_cpus.commit.committedInsts   2051862687                       # Number of instructions committed
system.switch_cpus.commit.committedOps     2051862687                       # Number of ops (including micro ops) committed
system.switch_cpus.commit.swp_count                 0                       # Number of s/w prefetches committed
system.switch_cpus.commit.refs              639662834                       # Number of memory references committed
system.switch_cpus.commit.loads             437265312                       # Number of loads committed
system.switch_cpus.commit.membars                4460                       # Number of memory barriers committed
system.switch_cpus.commit.branches          311704437                       # Number of branches committed
system.switch_cpus.commit.fp_insts           31971899                       # Number of committed floating point instructions.
system.switch_cpus.commit.int_insts        1959372409                       # Number of committed integer instructions.
system.switch_cpus.commit.function_calls     14739094                       # Number of function calls committed.
system.switch_cpus.commit.bw_lim_events      92823779                       # number cycles where commit BW limit reached
system.switch_cpus.commit.bw_limited                0                       # number of insts not committed due to BW limits
system.switch_cpus.rob.rob_reads           4014087899                       # The number of ROB reads
system.switch_cpus.rob.rob_writes          5451827827                       # The number of ROB writes
system.switch_cpus.timesIdled                   81498                       # Number of times that the entire CPU went into an idle state and unscheduled itself
system.switch_cpus.idleCycles                11081388                       # Total number of cycles that the CPU has spent unscheduled due to idling
system.switch_cpus.committedInsts          2000000001                       # Number of Instructions Simulated
system.switch_cpus.committedOps            2000000001                       # Number of Ops (including micro ops) Simulated
system.switch_cpus.committedInsts_total    2000000001                       # Number of Instructions Simulated
system.switch_cpus.cpi                       0.774368                       # CPI: Cycles Per Instruction
system.switch_cpus.cpi_total                 0.774368                       # CPI: Total CPI of All Threads
system.switch_cpus.ipc                       1.291376                       # IPC: Instructions Per Cycle
system.switch_cpus.ipc_total                 1.291376                       # IPC: Total IPC of All Threads
system.switch_cpus.int_regfile_reads       3175047574                       # number of integer regfile reads
system.switch_cpus.int_regfile_writes      1748949964                       # number of integer regfile writes
system.switch_cpus.fp_regfile_reads          42104690                       # number of floating regfile reads
system.switch_cpus.fp_regfile_writes         21345148                       # number of floating regfile writes
system.switch_cpus.misc_regfile_reads          708668                       # number of misc regfile reads
system.switch_cpus.misc_regfile_writes         358238                       # number of misc regfile writes
system.l2.tags.numFaultyBlocks_VDD1              1141                       # number of faulty blocks in the cache at VDD1 (lowest)
system.l2.tags.numFaultyBlocks_VDD2              1141                       # number of faulty blocks in the cache at VDD2 (mid)
system.l2.tags.numFaultyBlocks_VDD3                 0                       # number of faulty blocks in the cache at VDD3 (highest)
system.l2.tags.blockFaultRate_VDD1           0.008705                       # Proportion of faulty blocks in the cache at VDD1
system.l2.tags.blockFaultRate_VDD2           0.008705                       # Proportion of faulty blocks in the cache at VDD2
system.l2.tags.blockFaultRate_VDD3                  0                       # Proportion of faulty blocks in the cache at VDD3
system.l2.tags.cycles_VDD1                          0                       # Total number of cycles spent on VDD1
system.l2.tags.cycles_VDD2                 2548992840                       # Total number of cycles spent on VDD2
system.l2.tags.cycles_VDD3                          0                       # Total number of cycles spent on VDD3
system.l2.tags.accessEnergy_VDD1                    0                       # Total dynamic energy dissipated at VDD1 in nJ
system.l2.tags.accessEnergy_VDD2         1778476.895797                       # Total dynamic energy dissipated at VDD2 in nJ
system.l2.tags.accessEnergy_VDD3                    0                       # Total dynamic energy dissipated at VDD3 in nJ
system.l2.tags.accessEnergy_tot          1778476.895797                       # Total dynamic energy dissipated in nJ
system.l2.tags.transitionsTo_VDD1                   0                       # Total number of transitions to VDD1
system.l2.tags.transitionsTo_VDD2                   0                       # Total number of transitions to VDD2
system.l2.tags.transitionsTo_VDD3                   0                       # Total number of transitions to VDD3
system.l2.tags.avgConsecutiveCycles_VDD1          nan                       # Average number of consecutive cycles spent at VDD1
system.l2.tags.avgConsecutiveCycles_VDD2          inf                       # Average number of consecutive cycles spent at VDD2
system.l2.tags.avgConsecutiveCycles_VDD3          nan                       # Average number of consecutive cycles spent at VDD3
system.l2.tags.proportionExecTime_VDD1              0                       # Proportion of total execution time that was spent at VDD1 for this cache
system.l2.tags.proportionExecTime_VDD2              1                       # Proportion of total execution time that was spent at VDD2 for this cache
system.l2.tags.proportionExecTime_VDD3              0                       # Proportion of total execution time that was spent at VDD3 for this cache
system.l2.tags.staticPower_avg            8751.172680                       # Average static power of this cache over the entire execution
system.l2.tags.numUnchangedFaultyTo_VDD1            0                       # Total number of unchanged (faulty) blocks during DPCS transition to VDD1
system.l2.tags.numUnchangedFaultyTo_VDD2            0                       # Total number of unchanged (faulty) blocks during DPCS transition to VDD2
system.l2.tags.numUnchangedFaultyTo_VDD3            0                       # Total number of unchanged (faulty) blocks during DPCS transition to VDD3
system.l2.tags.numFaultyWriteBacksTo_VDD1            0                       # Total number of faulty writebacks during DPCS transition to VDD1
system.l2.tags.numFaultyWriteBacksTo_VDD2            0                       # Total number of faulty writebacks during DPCS transition to VDD2
system.l2.tags.numFaultyWriteBacksTo_VDD3            0                       # Total number of faulty writebacks during DPCS transition to VDD3
system.l2.tags.numInvalidateOnlyTo_VDD1             0                       # Total number of blocks only invalidated during DPCS transition to VDD1
system.l2.tags.numInvalidateOnlyTo_VDD2             0                       # Total number of blocks only invalidated during DPCS transition to VDD2
system.l2.tags.numInvalidateOnlyTo_VDD3             0                       # Total number of blocks only invalidated during DPCS transition to VDD3
system.l2.tags.numMadeAvailableTo_VDD1              0                       # Total number of blocks made available (faulty to non-faulty) during DPCS transition to VDD1
system.l2.tags.numMadeAvailableTo_VDD2              0                       # Total number of blocks made available (faulty to non-faulty) during DPCS transition to VDD2
system.l2.tags.numMadeAvailableTo_VDD3              0                       # Total number of blocks made available (faulty to non-faulty) during DPCS transition to VDD3
system.l2.tags.numUnchangedNotFaultyTo_VDD1            0                       # Total number of blocks unchanged (not faulty) during DPCS transition to VDD1
system.l2.tags.numUnchangedNotFaultyTo_VDD2            0                       # Total number of blocks unchanged (not faulty) during DPCS transition to VDD2
system.l2.tags.numUnchangedNotFaultyTo_VDD3            0                       # Total number of blocks unchanged (not faulty) during DPCS transition to VDD3
system.l2.tags.faultyWriteBackRateTo_VDD1          nan                       # Average number of writebacks caused by faulty blocks when changing to VDD1
system.l2.tags.faultyWriteBackRateTo_VDD2          nan                       # Average number of writebacks caused by faulty blocks when changing to VDD2
system.l2.tags.faultyWriteBackRateTo_VDD3          nan                       # Average number of writebacks caused by faulty blocks when changing to VDD3
system.l2.tags.replacements                    176089                       # number of replacements
system.l2.tags.tagsinuse                 128287.583254                       # Cycle average of tags in use
system.l2.tags.total_refs                     4843527                       # Total number of references to valid blocks.
system.l2.tags.sampled_refs                    304356                       # Sample count of references to valid blocks.
system.l2.tags.avg_refs                     15.914018                       # Average number of references to valid blocks.
system.l2.tags.warmup_cycle                         0                       # Cycle when the warmup percentage was hit.
system.l2.tags.occ_blocks::writebacks    24123.528568                       # Average occupied blocks per requestor
system.l2.tags.occ_blocks::switch_cpus.inst   398.556394                       # Average occupied blocks per requestor
system.l2.tags.occ_blocks::switch_cpus.data 57991.247758                       # Average occupied blocks per requestor
system.l2.tags.occ_blocks::cpu.inst        421.333566                       # Average occupied blocks per requestor
system.l2.tags.occ_blocks::cpu.data      45352.916968                       # Average occupied blocks per requestor
system.l2.tags.occ_percent::writebacks       0.184048                       # Average percentage of cache occupancy
system.l2.tags.occ_percent::switch_cpus.inst     0.003041                       # Average percentage of cache occupancy
system.l2.tags.occ_percent::switch_cpus.data     0.442438                       # Average percentage of cache occupancy
system.l2.tags.occ_percent::cpu.inst         0.003215                       # Average percentage of cache occupancy
system.l2.tags.occ_percent::cpu.data         0.346015                       # Average percentage of cache occupancy
system.l2.tags.occ_percent::total            0.978757                       # Average percentage of cache occupancy
system.l2.ReadReq_hits::switch_cpus.inst         5082                       # number of ReadReq hits
system.l2.ReadReq_hits::switch_cpus.data      2039202                       # number of ReadReq hits
system.l2.ReadReq_hits::total                 2044284                       # number of ReadReq hits
system.l2.Writeback_hits::writebacks          1910446                       # number of Writeback hits
system.l2.Writeback_hits::total               1910446                       # number of Writeback hits
system.l2.ReadExReq_hits::switch_cpus.data      1162243                       # number of ReadExReq hits
system.l2.ReadExReq_hits::total               1162243                       # number of ReadExReq hits
system.l2.demand_hits::switch_cpus.inst          5082                       # number of demand (read+write) hits
system.l2.demand_hits::switch_cpus.data       3201445                       # number of demand (read+write) hits
system.l2.demand_hits::total                  3206527                       # number of demand (read+write) hits
system.l2.overall_hits::switch_cpus.inst         5082                       # number of overall hits
system.l2.overall_hits::switch_cpus.data      3201445                       # number of overall hits
system.l2.overall_hits::total                 3206527                       # number of overall hits
system.l2.ReadReq_misses::switch_cpus.inst          893                       # number of ReadReq misses
system.l2.ReadReq_misses::switch_cpus.data       157555                       # number of ReadReq misses
system.l2.ReadReq_misses::total                158448                       # number of ReadReq misses
system.l2.ReadExReq_misses::switch_cpus.data        17665                       # number of ReadExReq misses
system.l2.ReadExReq_misses::total               17665                       # number of ReadExReq misses
system.l2.demand_misses::switch_cpus.inst          893                       # number of demand (read+write) misses
system.l2.demand_misses::switch_cpus.data       175220                       # number of demand (read+write) misses
system.l2.demand_misses::total                 176113                       # number of demand (read+write) misses
system.l2.overall_misses::switch_cpus.inst          893                       # number of overall misses
system.l2.overall_misses::switch_cpus.data       175220                       # number of overall misses
system.l2.overall_misses::total                176113                       # number of overall misses
system.l2.ReadReq_miss_latency::switch_cpus.inst     71664876                       # number of ReadReq miss cycles
system.l2.ReadReq_miss_latency::switch_cpus.data  11688443382                       # number of ReadReq miss cycles
system.l2.ReadReq_miss_latency::total     11760108258                       # number of ReadReq miss cycles
system.l2.ReadExReq_miss_latency::switch_cpus.data   1150847116                       # number of ReadExReq miss cycles
system.l2.ReadExReq_miss_latency::total    1150847116                       # number of ReadExReq miss cycles
system.l2.demand_miss_latency::switch_cpus.inst     71664876                       # number of demand (read+write) miss cycles
system.l2.demand_miss_latency::switch_cpus.data  12839290498                       # number of demand (read+write) miss cycles
system.l2.demand_miss_latency::total      12910955374                       # number of demand (read+write) miss cycles
system.l2.overall_miss_latency::switch_cpus.inst     71664876                       # number of overall miss cycles
system.l2.overall_miss_latency::switch_cpus.data  12839290498                       # number of overall miss cycles
system.l2.overall_miss_latency::total     12910955374                       # number of overall miss cycles
system.l2.ReadReq_accesses::switch_cpus.inst         5975                       # number of ReadReq accesses(hits+misses)
system.l2.ReadReq_accesses::switch_cpus.data      2196757                       # number of ReadReq accesses(hits+misses)
system.l2.ReadReq_accesses::total             2202732                       # number of ReadReq accesses(hits+misses)
system.l2.Writeback_accesses::writebacks      1910446                       # number of Writeback accesses(hits+misses)
system.l2.Writeback_accesses::total           1910446                       # number of Writeback accesses(hits+misses)
system.l2.ReadExReq_accesses::switch_cpus.data      1179908                       # number of ReadExReq accesses(hits+misses)
system.l2.ReadExReq_accesses::total           1179908                       # number of ReadExReq accesses(hits+misses)
system.l2.demand_accesses::switch_cpus.inst         5975                       # number of demand (read+write) accesses
system.l2.demand_accesses::switch_cpus.data      3376665                       # number of demand (read+write) accesses
system.l2.demand_accesses::total              3382640                       # number of demand (read+write) accesses
system.l2.overall_accesses::switch_cpus.inst         5975                       # number of overall (read+write) accesses
system.l2.overall_accesses::switch_cpus.data      3376665                       # number of overall (read+write) accesses
system.l2.overall_accesses::total             3382640                       # number of overall (read+write) accesses
system.l2.ReadReq_miss_rate::switch_cpus.inst     0.149456                       # miss rate for ReadReq accesses
system.l2.ReadReq_miss_rate::switch_cpus.data     0.071722                       # miss rate for ReadReq accesses
system.l2.ReadReq_miss_rate::total           0.071932                       # miss rate for ReadReq accesses
system.l2.ReadExReq_miss_rate::switch_cpus.data     0.014972                       # miss rate for ReadExReq accesses
system.l2.ReadExReq_miss_rate::total         0.014972                       # miss rate for ReadExReq accesses
system.l2.demand_miss_rate::switch_cpus.inst     0.149456                       # miss rate for demand accesses
system.l2.demand_miss_rate::switch_cpus.data     0.051891                       # miss rate for demand accesses
system.l2.demand_miss_rate::total            0.052064                       # miss rate for demand accesses
system.l2.overall_miss_rate::switch_cpus.inst     0.149456                       # miss rate for overall accesses
system.l2.overall_miss_rate::switch_cpus.data     0.051891                       # miss rate for overall accesses
system.l2.overall_miss_rate::total           0.052064                       # miss rate for overall accesses
system.l2.ReadReq_avg_miss_latency::switch_cpus.inst 80251.820829                       # average ReadReq miss latency
system.l2.ReadReq_avg_miss_latency::switch_cpus.data 74186.432560                       # average ReadReq miss latency
system.l2.ReadReq_avg_miss_latency::total 74220.616593                       # average ReadReq miss latency
system.l2.ReadExReq_avg_miss_latency::switch_cpus.data 65148.435664                       # average ReadExReq miss latency
system.l2.ReadExReq_avg_miss_latency::total 65148.435664                       # average ReadExReq miss latency
system.l2.demand_avg_miss_latency::switch_cpus.inst 80251.820829                       # average overall miss latency
system.l2.demand_avg_miss_latency::switch_cpus.data 73275.256809                       # average overall miss latency
system.l2.demand_avg_miss_latency::total 73310.632230                       # average overall miss latency
system.l2.overall_avg_miss_latency::switch_cpus.inst 80251.820829                       # average overall miss latency
system.l2.overall_avg_miss_latency::switch_cpus.data 73275.256809                       # average overall miss latency
system.l2.overall_avg_miss_latency::total 73310.632230                       # average overall miss latency
system.l2.blocked_cycles::no_mshrs                  0                       # number of cycles access was blocked
system.l2.blocked_cycles::no_targets                0                       # number of cycles access was blocked
system.l2.blocked::no_mshrs                         0                       # number of cycles access was blocked
system.l2.blocked::no_targets                       0                       # number of cycles access was blocked
system.l2.avg_blocked_cycles::no_mshrs            nan                       # average number of cycles each access was blocked
system.l2.avg_blocked_cycles::no_targets          nan                       # average number of cycles each access was blocked
system.l2.fast_writes                               0                       # number of fast writes performed
system.l2.cache_copies                              0                       # number of cache copies performed
system.l2.writebacks::writebacks               164325                       # number of writebacks
system.l2.writebacks::total                    164325                       # number of writebacks
system.l2.ReadReq_mshr_misses::switch_cpus.inst          893                       # number of ReadReq MSHR misses
system.l2.ReadReq_mshr_misses::switch_cpus.data       157555                       # number of ReadReq MSHR misses
system.l2.ReadReq_mshr_misses::total           158448                       # number of ReadReq MSHR misses
system.l2.ReadExReq_mshr_misses::switch_cpus.data        17665                       # number of ReadExReq MSHR misses
[...]
system.cpu.dcache.tags.proportionExecTime_VDD1            0                       # Proportion of total execution time that was spent at VDD1 for this cache
system.cpu.dcache.tags.proportionExecTime_VDD2            1                       # Proportion of total execution time that was spent at VDD2 for this cache
system.cpu.dcache.tags.proportionExecTime_VDD3            0                       # Proportion of total execution time that was spent at VDD3 for this cache
system.cpu.dcache.tags.staticPower_avg     333.713930                       # Average static power of this cache over the entire execution
system.cpu.dcache.tags.numUnchangedFaultyTo_VDD1            0                       # Total number of unchanged (faulty) blocks during DPCS transition to VDD1
system.cpu.dcache.tags.numUnchangedFaultyTo_VDD2            0                       # Total number of unchanged (faulty) blocks during DPCS transition to VDD2
system.cpu.dcache.tags.numUnchangedFaultyTo_VDD3            0                       # Total number of unchanged (faulty) blocks during DPCS transition to VDD3
system.cpu.dcache.tags.numFaultyWriteBacksTo_VDD1            0                       # Total number of faulty writebacks during DPCS transition to VDD1
system.cpu.dcache.tags.numFaultyWriteBacksTo_VDD2            0                       # Total number of faulty writebacks during DPCS transition to VDD2
system.cpu.dcache.tags.numFaultyWriteBacksTo_VDD3            0                       # Total number of faulty writebacks during DPCS transition to VDD3
system.cpu.dcache.tags.numInvalidateOnlyTo_VDD1            0                       # Total number of blocks only invalidated during DPCS transition to VDD1
system.cpu.dcache.tags.numInvalidateOnlyTo_VDD2            0                       # Total number of blocks only invalidated during DPCS transition to VDD2
system.cpu.dcache.tags.numInvalidateOnlyTo_VDD3            0                       # Total number of blocks only invalidated during DPCS transition to VDD3
system.cpu.dcache.tags.numMadeAvailableTo_VDD1            0                       # Total number of blocks made available (faulty to non-faulty) during DPCS transition to VDD1
system.cpu.dcache.tags.numMadeAvailableTo_VDD2            0                       # Total number of blocks made available (faulty to non-faulty) during DPCS transition to VDD2
system.cpu.dcache.tags.numMadeAvailableTo_VDD3            0                       # Total number of blocks made available (faulty to non-faulty) during DPCS transition to VDD3
system.cpu.dcache.tags.numUnchangedNotFaultyTo_VDD1            0                       # Total number of blocks unchanged (not faulty) during DPCS transition to VDD1
system.cpu.dcache.tags.numUnchangedNotFaultyTo_VDD2            0                       # Total number of blocks unchanged (not faulty) during DPCS transition to VDD2
system.cpu.dcache.tags.numUnchangedNotFaultyTo_VDD3            0                       # Total number of blocks unchanged (not faulty) during DPCS transition to VDD3
system.cpu.dcache.tags.faultyWriteBackRateTo_VDD1          nan                       # Average number of writebacks caused by faulty blocks when changing to VDD1
system.cpu.dcache.tags.faultyWriteBackRateTo_VDD2          nan                       # Average number of writebacks caused by faulty blocks when changing to VDD2
system.cpu.dcache.tags.faultyWriteBackRateTo_VDD3          nan                       # Average number of writebacks caused by faulty blocks when changing to VDD3
system.cpu.dcache.tags.replacements           3376665                       # number of replacements
system.cpu.dcache.tags.tagsinuse                 4057                       # Cycle average of tags in use
system.cpu.dcache.tags.total_refs           780322969                       # Total number of references to valid blocks.
system.cpu.dcache.tags.sampled_refs           3380722                       # Sample count of references to valid blocks.
system.cpu.dcache.tags.avg_refs            230.815479                       # Average number of references to valid blocks.
system.cpu.dcache.tags.warmup_cycle                 0                       # Cycle when the warmup percentage was hit.
system.cpu.dcache.tags.occ_blocks::switch_cpus.data  3989.390574                       # Average occupied blocks per requestor
system.cpu.dcache.tags.occ_blocks::cpu.data    67.609426                       # Average occupied blocks per requestor
system.cpu.dcache.tags.occ_percent::switch_cpus.data     0.973972                       # Average percentage of cache occupancy
system.cpu.dcache.tags.occ_percent::cpu.data     0.016506                       # Average percentage of cache occupancy
system.cpu.dcache.tags.occ_percent::total     0.990479                       # Average percentage of cache occupancy
system.cpu.dcache.ReadReq_hits::switch_cpus.data    510119034                       # number of ReadReq hits
system.cpu.dcache.ReadReq_hits::total       510119034                       # number of ReadReq hits
system.cpu.dcache.WriteReq_hits::switch_cpus.data    195133021                       # number of WriteReq hits
system.cpu.dcache.WriteReq_hits::total      195133021                       # number of WriteReq hits
system.cpu.dcache.LoadLockedReq_hits::switch_cpus.data         4426                       # number of LoadLockedReq hits
system.cpu.dcache.LoadLockedReq_hits::total         4426                       # number of LoadLockedReq hits
system.cpu.dcache.StoreCondReq_hits::switch_cpus.data         4460                       # number of StoreCondReq hits
system.cpu.dcache.StoreCondReq_hits::total         4460                       # number of StoreCondReq hits
system.cpu.dcache.demand_hits::switch_cpus.data    705252055                       # number of demand (read+write) hits
system.cpu.dcache.demand_hits::total        705252055                       # number of demand (read+write) hits
system.cpu.dcache.overall_hits::switch_cpus.data    705252055                       # number of overall hits
system.cpu.dcache.overall_hits::total       705252055                       # number of overall hits
system.cpu.dcache.ReadReq_misses::switch_cpus.data      5709835                       # number of ReadReq misses
system.cpu.dcache.ReadReq_misses::total       5709835                       # number of ReadReq misses
system.cpu.dcache.WriteReq_misses::switch_cpus.data      7260040                       # number of WriteReq misses
system.cpu.dcache.WriteReq_misses::total      7260040                       # number of WriteReq misses
system.cpu.dcache.LoadLockedReq_misses::switch_cpus.data          335                       # number of LoadLockedReq misses
system.cpu.dcache.LoadLockedReq_misses::total          335                       # number of LoadLockedReq misses
system.cpu.dcache.demand_misses::switch_cpus.data     12969875                       # number of demand (read+write) misses
system.cpu.dcache.demand_misses::total       12969875                       # number of demand (read+write) misses
system.cpu.dcache.overall_misses::switch_cpus.data     12969875                       # number of overall misses
system.cpu.dcache.overall_misses::total      12969875                       # number of overall misses
system.cpu.dcache.ReadReq_miss_latency::switch_cpus.data  45294779348                       # number of ReadReq miss cycles
system.cpu.dcache.ReadReq_miss_latency::total  45294779348                       # number of ReadReq miss cycles
system.cpu.dcache.WriteReq_miss_latency::switch_cpus.data  34037746199                       # number of WriteReq miss cycles
system.cpu.dcache.WriteReq_miss_latency::total  34037746199                       # number of WriteReq miss cycles
system.cpu.dcache.LoadLockedReq_miss_latency::switch_cpus.data      1673325                       # number of LoadLockedReq miss cycles
system.cpu.dcache.LoadLockedReq_miss_latency::total      1673325                       # number of LoadLockedReq miss cycles
system.cpu.dcache.demand_miss_latency::switch_cpus.data  79332525547                       # number of demand (read+write) miss cycles
system.cpu.dcache.demand_miss_latency::total  79332525547                       # number of demand (read+write) miss cycles
system.cpu.dcache.overall_miss_latency::switch_cpus.data  79332525547                       # number of overall miss cycles
system.cpu.dcache.overall_miss_latency::total  79332525547                       # number of overall miss cycles
system.cpu.dcache.ReadReq_accesses::switch_cpus.data    515828869                       # number of ReadReq accesses(hits+misses)
system.cpu.dcache.ReadReq_accesses::total    515828869                       # number of ReadReq accesses(hits+misses)
system.cpu.dcache.WriteReq_accesses::switch_cpus.data    202393061                       # number of WriteReq accesses(hits+misses)
system.cpu.dcache.WriteReq_accesses::total    202393061                       # number of WriteReq accesses(hits+misses)
system.cpu.dcache.LoadLockedReq_accesses::switch_cpus.data         4761                       # number of LoadLockedReq accesses(hits+misses)
system.cpu.dcache.LoadLockedReq_accesses::total         4761                       # number of LoadLockedReq accesses(hits+misses)
system.cpu.dcache.StoreCondReq_accesses::switch_cpus.data         4460                       # number of StoreCondReq accesses(hits+misses)
system.cpu.dcache.StoreCondReq_accesses::total         4460                       # number of StoreCondReq accesses(hits+misses)
system.cpu.dcache.demand_accesses::switch_cpus.data    718221930                       # number of demand (read+write) accesses
system.cpu.dcache.demand_accesses::total    718221930                       # number of demand (read+write) accesses
system.cpu.dcache.overall_accesses::switch_cpus.data    718221930                       # number of overall (read+write) accesses
system.cpu.dcache.overall_accesses::total    718221930                       # number of overall (read+write) accesses
system.cpu.dcache.ReadReq_miss_rate::switch_cpus.data     0.011069                       # miss rate for ReadReq accesses
system.cpu.dcache.ReadReq_miss_rate::total     0.011069                       # miss rate for ReadReq accesses
system.cpu.dcache.WriteReq_miss_rate::switch_cpus.data     0.035871                       # miss rate for WriteReq accesses
system.cpu.dcache.WriteReq_miss_rate::total     0.035871                       # miss rate for WriteReq accesses
system.cpu.dcache.LoadLockedReq_miss_rate::switch_cpus.data     0.070363                       # miss rate for LoadLockedReq accesses
system.cpu.dcache.LoadLockedReq_miss_rate::total     0.070363                       # miss rate for LoadLockedReq accesses
system.cpu.dcache.demand_miss_rate::switch_cpus.data     0.018058                       # miss rate for demand accesses
system.cpu.dcache.demand_miss_rate::total     0.018058                       # miss rate for demand accesses
system.cpu.dcache.overall_miss_rate::switch_cpus.data     0.018058                       # miss rate for overall accesses
system.cpu.dcache.overall_miss_rate::total     0.018058                       # miss rate for overall accesses
system.cpu.dcache.ReadReq_avg_miss_latency::switch_cpus.data  7932.765018                       # average ReadReq miss latency
system.cpu.dcache.ReadReq_avg_miss_latency::total  7932.765018                       # average ReadReq miss latency
system.cpu.dcache.WriteReq_avg_miss_latency::switch_cpus.data  4688.368962                       # average WriteReq miss latency
system.cpu.dcache.WriteReq_avg_miss_latency::total  4688.368962                       # average WriteReq miss latency
system.cpu.dcache.LoadLockedReq_avg_miss_latency::switch_cpus.data         4995                       # average LoadLockedReq miss latency
system.cpu.dcache.LoadLockedReq_avg_miss_latency::total         4995                       # average LoadLockedReq miss latency
system.cpu.dcache.demand_avg_miss_latency::switch_cpus.data  6116.676186                       # average overall miss latency
system.cpu.dcache.demand_avg_miss_latency::total  6116.676186                       # average overall miss latency
system.cpu.dcache.overall_avg_miss_latency::switch_cpus.data  6116.676186                       # average overall miss latency
system.cpu.dcache.overall_avg_miss_latency::total  6116.676186                       # average overall miss latency
system.cpu.dcache.blocked_cycles::no_mshrs        14645                       # number of cycles access was blocked
system.cpu.dcache.blocked_cycles::no_targets          445                       # number of cycles access was blocked
system.cpu.dcache.blocked::no_mshrs              2268                       # number of cycles access was blocked
system.cpu.dcache.blocked::no_targets               3                       # number of cycles access was blocked
system.cpu.dcache.avg_blocked_cycles::no_mshrs     6.457231                       # average number of cycles each access was blocked
system.cpu.dcache.avg_blocked_cycles::no_targets   148.333333                       # average number of cycles each access was blocked
system.cpu.dcache.fast_writes                       0                       # number of fast writes performed
system.cpu.dcache.cache_copies                      0                       # number of cache copies performed
system.cpu.dcache.writebacks::writebacks      1910446                       # number of writebacks
system.cpu.dcache.writebacks::total           1910446                       # number of writebacks
system.cpu.dcache.ReadReq_mshr_hits::switch_cpus.data      3512935                       # number of ReadReq MSHR hits
system.cpu.dcache.ReadReq_mshr_hits::total      3512935                       # number of ReadReq MSHR hits
system.cpu.dcache.WriteReq_mshr_hits::switch_cpus.data      6080610                       # number of WriteReq MSHR hits
system.cpu.dcache.WriteReq_mshr_hits::total      6080610                       # number of WriteReq MSHR hits
system.cpu.dcache.demand_mshr_hits::switch_cpus.data      9593545                       # number of demand (read+write) MSHR hits
system.cpu.dcache.demand_mshr_hits::total      9593545                       # number of demand (read+write) MSHR hits
system.cpu.dcache.overall_mshr_hits::switch_cpus.data      9593545                       # number of overall MSHR hits
system.cpu.dcache.overall_mshr_hits::total      9593545                       # number of overall MSHR hits
system.cpu.dcache.ReadReq_mshr_misses::switch_cpus.data      2196900                       # number of ReadReq MSHR misses
system.cpu.dcache.ReadReq_mshr_misses::total      2196900                       # number of ReadReq MSHR misses
system.cpu.dcache.WriteReq_mshr_misses::switch_cpus.data      1179430                       # number of WriteReq MSHR misses
system.cpu.dcache.WriteReq_mshr_misses::total      1179430                       # number of WriteReq MSHR misses
system.cpu.dcache.LoadLockedReq_mshr_misses::switch_cpus.data          335                       # number of LoadLockedReq MSHR misses
system.cpu.dcache.LoadLockedReq_mshr_misses::total          335                       # number of LoadLockedReq MSHR misses
system.cpu.dcache.demand_mshr_misses::switch_cpus.data      3376330                       # number of demand (read+write) MSHR misses
system.cpu.dcache.demand_mshr_misses::total      3376330                       # number of demand (read+write) MSHR misses
system.cpu.dcache.overall_mshr_misses::switch_cpus.data      3376330                       # number of overall MSHR misses
system.cpu.dcache.overall_mshr_misses::total      3376330                       # number of overall MSHR misses
system.cpu.dcache.ReadReq_mshr_miss_latency::switch_cpus.data  19378712664                       # number of ReadReq MSHR miss cycles
system.cpu.dcache.ReadReq_mshr_miss_latency::total  19378712664                       # number of ReadReq MSHR miss cycles
system.cpu.dcache.WriteReq_mshr_miss_latency::switch_cpus.data   5509681712                       # number of WriteReq MSHR miss cycles
system.cpu.dcache.WriteReq_mshr_miss_latency::total   5509681712                       # number of WriteReq MSHR miss cycles
system.cpu.dcache.LoadLockedReq_mshr_miss_latency::switch_cpus.data      1227105                       # number of LoadLockedReq MSHR miss cycles
system.cpu.dcache.LoadLockedReq_mshr_miss_latency::total      1227105                       # number of LoadLockedReq MSHR miss cycles
system.cpu.dcache.demand_mshr_miss_latency::switch_cpus.data  24888394376                       # number of demand (read+write) MSHR miss cycles
system.cpu.dcache.demand_mshr_miss_latency::total  24888394376                       # number of demand (read+write) MSHR miss cycles
system.cpu.dcache.overall_mshr_miss_latency::switch_cpus.data  24888394376                       # number of overall MSHR miss cycles
system.cpu.dcache.overall_mshr_miss_latency::total  24888394376                       # number of overall MSHR miss cycles
system.cpu.dcache.ReadReq_mshr_miss_rate::switch_cpus.data     0.004259                       # mshr miss rate for ReadReq accesses
system.cpu.dcache.ReadReq_mshr_miss_rate::total     0.004259                       # mshr miss rate for ReadReq accesses
system.cpu.dcache.WriteReq_mshr_miss_rate::switch_cpus.data     0.005827                       # mshr miss rate for WriteReq accesses
system.cpu.dcache.WriteReq_mshr_miss_rate::total     0.005827                       # mshr miss rate for WriteReq accesses
system.cpu.dcache.LoadLockedReq_mshr_miss_rate::switch_cpus.data     0.070363                       # mshr miss rate for LoadLockedReq accesses
system.cpu.dcache.LoadLockedReq_mshr_miss_rate::total     0.070363                       # mshr miss rate for LoadLockedReq accesses
system.cpu.dcache.demand_mshr_miss_rate::switch_cpus.data     0.004701                       # mshr miss rate for demand accesses
system.cpu.dcache.demand_mshr_miss_rate::total     0.004701                       # mshr miss rate for demand accesses
system.cpu.dcache.overall_mshr_miss_rate::switch_cpus.data     0.004701                       # mshr miss rate for overall accesses
system.cpu.dcache.overall_mshr_miss_rate::total     0.004701                       # mshr miss rate for overall accesses
system.cpu.dcache.ReadReq_avg_mshr_miss_latency::switch_cpus.data  8820.935256                       # average ReadReq mshr miss latency
system.cpu.dcache.ReadReq_avg_mshr_miss_latency::total  8820.935256                       # average ReadReq mshr miss latency
system.cpu.dcache.WriteReq_avg_mshr_miss_latency::switch_cpus.data  4671.478351                       # average WriteReq mshr miss latency
system.cpu.dcache.WriteReq_avg_mshr_miss_latency::total  4671.478351                       # average WriteReq mshr miss latency
system.cpu.dcache.LoadLockedReq_avg_mshr_miss_latency::switch_cpus.data         3663                       # average LoadLockedReq mshr miss latency
system.cpu.dcache.LoadLockedReq_avg_mshr_miss_latency::total         3663                       # average LoadLockedReq mshr miss latency
system.cpu.dcache.demand_avg_mshr_miss_latency::switch_cpus.data  7371.434183                       # average overall mshr miss latency
system.cpu.dcache.demand_avg_mshr_miss_latency::total  7371.434183                       # average overall mshr miss latency
system.cpu.dcache.overall_avg_mshr_miss_latency::switch_cpus.data  7371.434183                       # average overall mshr miss latency
system.cpu.dcache.overall_avg_mshr_miss_latency::total  7371.434183                       # average overall mshr miss latency
system.cpu.dcache.no_allocate_misses                0                       # Number of misses that were no-allocate

---------- End Simulation Statistics   ----------
