
---------- Begin Simulation Statistics ----------
sim_seconds                                  0.700639                       # Number of seconds simulated
sim_ticks                                700638828000                       # Number of ticks simulated
final_tick                               1200968188500                       # Number of ticks from beginning of simulation (restored from checkpoints and never reset)
sim_freq                                 1000000000000                       # Frequency of simulated ticks
host_inst_rate                                 172149                       # Simulator instruction rate (inst/s)
host_op_rate                                   172149                       # Simulator op (including micro ops) rate (op/s)
host_tick_rate                               40204852                       # Simulator tick rate (ticks/s)
host_mem_usage                                2332524                       # Number of bytes of host memory used
host_seconds                                 17426.72                       # Real time elapsed on the host
sim_insts                                  3000000001                       # Number of instructions simulated
sim_ops                                    3000000001                       # Number of ops (including micro ops) simulated
system.mem_ctrls.bytes_read::switch_cpus.inst        49472                       # Number of bytes read from this memory
system.mem_ctrls.bytes_read::switch_cpus.data     33594112                       # Number of bytes read from this memory
system.mem_ctrls.bytes_read::total           33643584                       # Number of bytes read from this memory
system.mem_ctrls.bytes_inst_read::switch_cpus.inst        49472                       # Number of instructions bytes read from this memory
system.mem_ctrls.bytes_inst_read::total         49472                       # Number of instructions bytes read from this memory
system.mem_ctrls.bytes_written::writebacks     26537600                       # Number of bytes written to this memory
system.mem_ctrls.bytes_written::total        26537600                       # Number of bytes written to this memory
system.mem_ctrls.num_reads::switch_cpus.inst          773                       # Number of read requests responded to by this memory
system.mem_ctrls.num_reads::switch_cpus.data       524908                       # Number of read requests responded to by this memory
system.mem_ctrls.num_reads::total              525681                       # Number of read requests responded to by this memory
system.mem_ctrls.num_writes::writebacks        414650                       # Number of write requests responded to by this memory
system.mem_ctrls.num_writes::total             414650                       # Number of write requests responded to by this memory
system.mem_ctrls.bw_read::switch_cpus.inst        70610                       # Total read bandwidth from this memory (bytes/s)
system.mem_ctrls.bw_read::switch_cpus.data     47947831                       # Total read bandwidth from this memory (bytes/s)
system.mem_ctrls.bw_read::total              48018441                       # Total read bandwidth from this memory (bytes/s)
system.mem_ctrls.bw_inst_read::switch_cpus.inst        70610                       # Instruction read bandwidth from this memory (bytes/s)
system.mem_ctrls.bw_inst_read::total            70610                       # Instruction read bandwidth from this memory (bytes/s)
system.mem_ctrls.bw_write::writebacks        37876291                       # Write bandwidth from this memory (bytes/s)
system.mem_ctrls.bw_write::total             37876291                       # Write bandwidth from this memory (bytes/s)
system.mem_ctrls.bw_total::writebacks        37876291                       # Total bandwidth to/from this memory (bytes/s)
system.mem_ctrls.bw_total::switch_cpus.inst        70610                       # Total bandwidth to/from this memory (bytes/s)
system.mem_ctrls.bw_total::switch_cpus.data     47947831                       # Total bandwidth to/from this memory (bytes/s)
system.mem_ctrls.bw_total::total             85894731                       # Total bandwidth to/from this memory (bytes/s)
system.mem_ctrls.readReqs                      525681                       # Total number of read requests accepted by DRAM controller
system.mem_ctrls.writeReqs                     414650                       # Total number of write requests accepted by DRAM controller
system.mem_ctrls.readBursts                    525681                       # Total number of DRAM read bursts. Each DRAM read request translates to either one or multiple DRAM read bursts
system.mem_ctrls.writeBursts                   414650                       # Total number of DRAM write bursts. Each DRAM write request translates to either one or multiple DRAM write bursts
system.mem_ctrls.bytesRead                   33643584                       # Total number of bytes read from memory
system.mem_ctrls.bytesWritten                26537600                       # Total number of bytes written to memory
system.mem_ctrls.bytesConsumedRd             33643584                       # bytesRead derated as per pkt->getSize()
system.mem_ctrls.bytesConsumedWr             26537600                       # bytesWritten derated as per pkt->getSize()
system.mem_ctrls.servicedByWrQ                     42                       # Number of DRAM read bursts serviced by write Q
system.mem_ctrls.neitherReadNorWrite                0                       # Reqs where no action is needed
system.mem_ctrls.perBankRdReqs::0               32797                       # Track reads on a per bank basis
system.mem_ctrls.perBankRdReqs::1               32735                       # Track reads on a per bank basis
system.mem_ctrls.perBankRdReqs::2               32612                       # Track reads on a per bank basis
system.mem_ctrls.perBankRdReqs::3               33309                       # Track reads on a per bank basis
system.mem_ctrls.perBankRdReqs::4               32692                       # Track reads on a per bank basis
system.mem_ctrls.perBankRdReqs::5               32959                       # Track reads on a per bank basis
system.mem_ctrls.perBankRdReqs::6               32847                       # Track reads on a per bank basis
system.mem_ctrls.perBankRdReqs::7               32439                       # Track reads on a per bank basis
system.mem_ctrls.perBankRdReqs::8               33275                       # Track reads on a per bank basis
system.mem_ctrls.perBankRdReqs::9               32872                       # Track reads on a per bank basis
system.mem_ctrls.perBankRdReqs::10              32648                       # Track reads on a per bank basis
system.mem_ctrls.perBankRdReqs::11              32767                       # Track reads on a per bank basis
system.mem_ctrls.perBankRdReqs::12              33122                       # Track reads on a per bank basis
system.mem_ctrls.perBankRdReqs::13              32846                       # Track reads on a per bank basis
system.mem_ctrls.perBankRdReqs::14              32809                       # Track reads on a per bank basis
system.mem_ctrls.perBankRdReqs::15              32910                       # Track reads on a per bank basis
system.mem_ctrls.perBankWrReqs::0               26120                       # Track writes on a per bank basis
system.mem_ctrls.perBankWrReqs::1               25929                       # Track writes on a per bank basis
system.mem_ctrls.perBankWrReqs::2               25759                       # Track writes on a per bank basis
system.mem_ctrls.perBankWrReqs::3               25989                       # Track writes on a per bank basis
system.mem_ctrls.perBankWrReqs::4               25783                       # Track writes on a per bank basis
system.mem_ctrls.perBankWrReqs::5               26056                       # Track writes on a per bank basis
system.mem_ctrls.perBankWrReqs::6               25739                       # Track writes on a per bank basis
system.mem_ctrls.perBankWrReqs::7               25452                       # Track writes on a per bank basis
system.mem_ctrls.perBankWrReqs::8               26037                       # Track writes on a per bank basis
system.mem_ctrls.perBankWrReqs::9               25768                       # Track writes on a per bank basis
system.mem_ctrls.perBankWrReqs::10              25810                       # Track writes on a per bank basis
system.mem_ctrls.perBankWrReqs::11              25976                       # Track writes on a per bank basis
system.mem_ctrls.perBankWrReqs::12              26236                       # Track writes on a per bank basis
system.mem_ctrls.perBankWrReqs::13              26044                       # Track writes on a per bank basis
system.mem_ctrls.perBankWrReqs::14              25921                       # Track writes on a per bank basis
system.mem_ctrls.perBankWrReqs::15              26031                       # Track writes on a per bank basis
system.mem_ctrls.numRdRetry                         0                       # Number of times rd buffer was full causing retry
system.mem_ctrls.numWrRetry                         0                       # Number of times wr buffer was full causing retry
system.mem_ctrls.totGap                  700636382000                       # Total gap between requests
system.mem_ctrls.readPktSize::0                     0                       # Categorize read packet sizes
system.mem_ctrls.readPktSize::1                     0                       # Categorize read packet sizes
system.mem_ctrls.readPktSize::2                     0                       # Categorize read packet sizes
system.mem_ctrls.readPktSize::3                     0                       # Categorize read packet sizes
system.mem_ctrls.readPktSize::4                     0                       # Categorize read packet sizes
system.mem_ctrls.readPktSize::5                     0                       # Categorize read packet sizes
system.mem_ctrls.readPktSize::6                525681                       # Categorize read packet sizes
system.mem_ctrls.writePktSize::0                    0                       # Categorize write packet sizes
system.mem_ctrls.writePktSize::1                    0                       # Categorize write packet sizes
system.mem_ctrls.writePktSize::2                    0                       # Categorize write packet sizes
system.mem_ctrls.writePktSize::3                    0                       # Categorize write packet sizes
system.mem_ctrls.writePktSize::4                    0                       # Categorize write packet sizes
system.mem_ctrls.writePktSize::5                    0                       # Categorize write packet sizes
system.mem_ctrls.writePktSize::6               414650                       # Categorize write packet sizes
system.mem_ctrls.rdQLenPdf::0                  517707                       # What read queue length does an incoming req see
system.mem_ctrls.rdQLenPdf::1                    7594                       # What read queue length does an incoming req see
system.mem_ctrls.rdQLenPdf::2                     253                       # What read queue length does an incoming req see
system.mem_ctrls.rdQLenPdf::3                      77                       # What read queue length does an incoming req see
system.mem_ctrls.rdQLenPdf::4                       6                       # What read queue length does an incoming req see
system.mem_ctrls.rdQLenPdf::5                       1                       # What read queue length does an incoming req see
system.mem_ctrls.rdQLenPdf::6                       1                       # What read queue length does an incoming req see
system.mem_ctrls.rdQLenPdf::7                       0                       # What read queue length does an incoming req see
system.mem_ctrls.rdQLenPdf::8                       0                       # What read queue length does an incoming req see
system.mem_ctrls.rdQLenPdf::9                       0                       # What read queue length does an incoming req see
system.mem_ctrls.rdQLenPdf::10                      0                       # What read queue length does an incoming req see
system.mem_ctrls.rdQLenPdf::11                      0                       # What read queue length does an incoming req see
system.mem_ctrls.rdQLenPdf::12                      0                       # What read queue length does an incoming req see
system.mem_ctrls.rdQLenPdf::13                      0                       # What read queue length does an incoming req see
system.mem_ctrls.rdQLenPdf::14                      0                       # What read queue length does an incoming req see
system.mem_ctrls.rdQLenPdf::15                      0                       # What read queue length does an incoming req see
system.mem_ctrls.rdQLenPdf::16                      0                       # What read queue length does an incoming req see
system.mem_ctrls.rdQLenPdf::17                      0                       # What read queue length does an incoming req see
system.mem_ctrls.rdQLenPdf::18                      0                       # What read queue length does an incoming req see
system.mem_ctrls.rdQLenPdf::19                      0                       # What read queue length does an incoming req see
system.mem_ctrls.rdQLenPdf::20                      0                       # What read queue length does an incoming req see
system.mem_ctrls.rdQLenPdf::21                      0                       # What read queue length does an incoming req see
system.mem_ctrls.rdQLenPdf::22                      0                       # What read queue length does an incoming req see
system.mem_ctrls.rdQLenPdf::23                      0                       # What read queue length does an incoming req see
system.mem_ctrls.rdQLenPdf::24                      0                       # What read queue length does an incoming req see
system.mem_ctrls.rdQLenPdf::25                      0                       # What read queue length does an incoming req see
system.mem_ctrls.rdQLenPdf::26                      0                       # What read queue length does an incoming req see
system.mem_ctrls.rdQLenPdf::27                      0                       # What read queue length does an incoming req see
system.mem_ctrls.rdQLenPdf::28                      0                       # What read queue length does an incoming req see
system.mem_ctrls.rdQLenPdf::29                      0                       # What read queue length does an incoming req see
system.mem_ctrls.rdQLenPdf::30                      0                       # What read queue length does an incoming req see
system.mem_ctrls.rdQLenPdf::31                      0                       # What read queue length does an incoming req see
system.mem_ctrls.wrQLenPdf::0                   17842                       # What write queue length does an incoming req see
system.mem_ctrls.wrQLenPdf::1                   18029                       # What write queue length does an incoming req see
system.mem_ctrls.wrQLenPdf::2                   18029                       # What write queue length does an incoming req see
system.mem_ctrls.wrQLenPdf::3                   18029                       # What write queue length does an incoming req see
system.mem_ctrls.wrQLenPdf::4                   18029                       # What write queue length does an incoming req see
system.mem_ctrls.wrQLenPdf::5                   18029                       # What write queue length does an incoming req see
system.mem_ctrls.wrQLenPdf::6                   18028                       # What write queue length does an incoming req see
system.mem_ctrls.wrQLenPdf::7                   18028                       # What write queue length does an incoming req see
system.mem_ctrls.wrQLenPdf::8                   18028                       # What write queue length does an incoming req see
system.mem_ctrls.wrQLenPdf::9                   18028                       # What write queue length does an incoming req see
system.mem_ctrls.wrQLenPdf::10                  18028                       # What write queue length does an incoming req see
system.mem_ctrls.wrQLenPdf::11                  18028                       # What write queue length does an incoming req see
system.mem_ctrls.wrQLenPdf::12                  18028                       # What write queue length does an incoming req see
system.mem_ctrls.wrQLenPdf::13                  18028                       # What write queue length does an incoming req see
system.mem_ctrls.wrQLenPdf::14                  18028                       # What write queue length does an incoming req see
system.mem_ctrls.wrQLenPdf::15                  18028                       # What write queue length does an incoming req see
system.mem_ctrls.wrQLenPdf::16                  18028                       # What write queue length does an incoming req see
system.mem_ctrls.wrQLenPdf::17                  18028                       # What write queue length does an incoming req see
system.mem_ctrls.wrQLenPdf::18                  18028                       # What write queue length does an incoming req see
system.mem_ctrls.wrQLenPdf::19                  18028                       # What write queue length does an incoming req see
system.mem_ctrls.wrQLenPdf::20                  18028                       # What write queue length does an incoming req see
system.mem_ctrls.wrQLenPdf::21                  18028                       # What write queue length does an incoming req see
system.mem_ctrls.wrQLenPdf::22                  18028                       # What write queue length does an incoming req see
system.mem_ctrls.wrQLenPdf::23                    187                       # What write queue length does an incoming req see
system.mem_ctrls.wrQLenPdf::24                      0                       # What write queue length does an incoming req see
system.mem_ctrls.wrQLenPdf::25                      0                       # What write queue length does an incoming req see
system.mem_ctrls.wrQLenPdf::26                      0                       # What write queue length does an incoming req see
system.mem_ctrls.wrQLenPdf::27                      0                       # What write queue length does an incoming req see
system.mem_ctrls.wrQLenPdf::28                      0                       # What write queue length does an incoming req see
system.mem_ctrls.wrQLenPdf::29                      0                       # What write queue length does an incoming req see
system.mem_ctrls.wrQLenPdf::30                      0                       # What write queue length does an incoming req see
system.mem_ctrls.wrQLenPdf::31                      0                       # What write queue length does an incoming req see
system.mem_ctrls.bytesPerActivate::samples       906670                       # Bytes accessed per row activation
system.mem_ctrls.bytesPerActivate::mean     66.372674                       # Bytes accessed per row activation
system.mem_ctrls.bytesPerActivate::gmean    65.625573                       # Bytes accessed per row activation
system.mem_ctrls.bytesPerActivate::stdev    13.728460                       # Bytes accessed per row activation
system.mem_ctrls.bytesPerActivate::64          874428     96.44%     96.44% # Bytes accessed per row activation
system.mem_ctrls.bytesPerActivate::128          31643      3.49%     99.93% # Bytes accessed per row activation
system.mem_ctrls.bytesPerActivate::192            348      0.04%     99.97% # Bytes accessed per row activation
system.mem_ctrls.bytesPerActivate::256            113      0.01%     99.98% # Bytes accessed per row activation
system.mem_ctrls.bytesPerActivate::320             53      0.01%     99.99% # Bytes accessed per row activation
system.mem_ctrls.bytesPerActivate::384             25      0.00%     99.99% # Bytes accessed per row activation
system.mem_ctrls.bytesPerActivate::448             16      0.00%    100.00% # Bytes accessed per row activation
system.mem_ctrls.bytesPerActivate::512              8      0.00%    100.00% # Bytes accessed per row activation
system.mem_ctrls.bytesPerActivate::576              8      0.00%    100.00% # Bytes accessed per row activation
system.mem_ctrls.bytesPerActivate::640              4      0.00%    100.00% # Bytes accessed per row activation
system.mem_ctrls.bytesPerActivate::704              6      0.00%    100.00% # Bytes accessed per row activation
system.mem_ctrls.bytesPerActivate::768              3      0.00%    100.00% # Bytes accessed per row activation
system.mem_ctrls.bytesPerActivate::832              2      0.00%    100.00% # Bytes accessed per row activation
system.mem_ctrls.bytesPerActivate::896              3      0.00%    100.00% # Bytes accessed per row activation
system.mem_ctrls.bytesPerActivate::960              1      0.00%    100.00% # Bytes accessed per row activation
system.mem_ctrls.bytesPerActivate::1024             1      0.00%    100.00% # Bytes accessed per row activation
system.mem_ctrls.bytesPerActivate::1088             2      0.00%    100.00% # Bytes accessed per row activation
system.mem_ctrls.bytesPerActivate::1152             2      0.00%    100.00% # Bytes accessed per row activation
system.mem_ctrls.bytesPerActivate::1216             1      0.00%    100.00% # Bytes accessed per row activation
system.mem_ctrls.bytesPerActivate::1280             1      0.00%    100.00% # Bytes accessed per row activation
system.mem_ctrls.bytesPerActivate::1920             2      0.00%    100.00% # Bytes accessed per row activation
system.mem_ctrls.bytesPerActivate::total       906670                       # Bytes accessed per row activation
system.mem_ctrls.totQLat                   7292324750                       # Total cycles spent in queuing delays
system.mem_ctrls.totMemAccLat             30597247250                       # Sum of mem lat for all requests
system.mem_ctrls.totBusLat                 2628195000                       # Total cycles spent in databus access
system.mem_ctrls.totBankLat               20676727500                       # Total cycles spent in bank access
system.mem_ctrls.avgQLat                     13873.26                       # Average queueing delay per request
system.mem_ctrls.avgBankLat                  39336.36                       # Average bank access latency per request
system.mem_ctrls.avgBusLat                    5000.00                       # Average bus latency per request
system.mem_ctrls.avgMemAccLat                58209.62                       # Average memory access latency
system.mem_ctrls.avgRdBW                        48.02                       # Average achieved read bandwidth in MB/s
system.mem_ctrls.avgWrBW                        37.88                       # Average achieved write bandwidth in MB/s
system.mem_ctrls.avgConsumedRdBW                48.02                       # Average consumed read bandwidth in MB/s
system.mem_ctrls.avgConsumedWrBW                37.88                       # Average consumed write bandwidth in MB/s
system.mem_ctrls.peakBW                      12800.00                       # Theoretical peak bandwidth in MB/s
system.mem_ctrls.busUtil                         0.67                       # Data bus utilization in percentage
system.mem_ctrls.avgRdQLen                       0.04                       # Average read queue length over time
system.mem_ctrls.avgWrQLen                      10.95                       # Average write queue length over time
system.mem_ctrls.readRowHits                    32396                       # Number of row buffer hits during reads
system.mem_ctrls.writeRowHits                    1217                       # Number of row buffer hits during writes
system.mem_ctrls.readRowHitRate                  6.16                       # Row buffer hit rate for reads
system.mem_ctrls.writeRowHitRate                 0.29                       # Row buffer hit rate for writes
system.mem_ctrls.avgGap                     745095.48                       # Average gap between requests
system.membus.throughput                     85894731                       # Throughput (bytes/s)
system.membus.trans_dist::ReadReq              490443                       # Transaction distribution
system.membus.trans_dist::ReadResp             490443                       # Transaction distribution
system.membus.trans_dist::Writeback            414650                       # Transaction distribution
system.membus.trans_dist::ReadExReq             35238                       # Transaction distribution
system.membus.trans_dist::ReadExResp            35238                       # Transaction distribution
system.membus.pkt_count_system.l2.mem_side::system.mem_ctrls.port      1466012                       # Packet count per connected master and slave (bytes)
system.membus.pkt_count::total                1466012                       # Packet count per connected master and slave (bytes)
system.membus.tot_pkt_size_system.l2.mem_side::system.mem_ctrls.port     60181184                       # Cumulative packet size per connected master and slave (bytes)
system.membus.tot_pkt_size::total            60181184                       # Cumulative packet size per connected master and slave (bytes)
system.membus.data_through_bus               60181184                       # Total data (bytes)
system.membus.snoop_data_through_bus                0                       # Total snoop data (bytes)
system.membus.reqLayer0.occupancy          2128765500                       # Layer occupancy (ticks)
system.membus.reqLayer0.utilization               0.3                       # Layer utilization (%)
system.membus.respLayer1.occupancy         2495187750                       # Layer occupancy (ticks)
system.membus.respLayer1.utilization              0.4                       # Layer utilization (%)
system.switch_cpus.branchPred.lookups       591566960                       # Number of BP lookups
system.switch_cpus.branchPred.condPredicted    492876371                       # Number of conditional branches predicted
system.switch_cpus.branchPred.condIncorrect     36048862                       # Number of conditional branches incorrect
system.switch_cpus.branchPred.BTBLookups    306424014                       # Number of BTB lookups
system.switch_cpus.branchPred.BTBHits       288079780                       # Number of BTB hits
system.switch_cpus.branchPred.BTBCorrect            0                       # Number of correct BTB predictions (this stat may not work properly.
system.switch_cpus.branchPred.BTBHitPct     94.013448                       # BTB Hit Percentage
system.switch_cpus.branchPred.usedRAS        27415745                       # Number of times the RAS was used to get a target.
system.switch_cpus.branchPred.RASInCorrect       364546                       # Number of incorrect RAS predictions.
system.switch_cpus.dtb.fetch_hits                   0                       # ITB hits
system.switch_cpus.dtb.fetch_misses                 0                       # ITB misses
system.switch_cpus.dtb.fetch_acv                    0                       # ITB acv
system.switch_cpus.dtb.fetch_accesses               0                       # ITB accesses
system.switch_cpus.dtb.read_hits            612963917                       # DTB read hits
system.switch_cpus.dtb.read_misses            2538943                       # DTB read misses
system.switch_cpus.dtb.read_acv                     0                       # DTB read access violations
system.switch_cpus.dtb.read_accesses        615502860                       # DTB read accesses
system.switch_cpus.dtb.write_hits           184502663                       # DTB write hits
system.switch_cpus.dtb.write_misses           2235586                       # DTB write misses
system.switch_cpus.dtb.write_acv                    0                       # DTB write access violations
system.switch_cpus.dtb.write_accesses       186738249                       # DTB write accesses
system.switch_cpus.dtb.data_hits            797466580                       # DTB hits
system.switch_cpus.dtb.data_misses            4774529                       # DTB misses
system.switch_cpus.dtb.data_acv                     0                       # DTB access violations
system.switch_cpus.dtb.data_accesses        802241109                       # DTB accesses
system.switch_cpus.itb.fetch_hits           477911578                       # ITB hits
system.switch_cpus.itb.fetch_misses               253                       # ITB misses
system.switch_cpus.itb.fetch_acv                    0                       # ITB acv
system.switch_cpus.itb.fetch_accesses       477911831                       # ITB accesses
system.switch_cpus.itb.read_hits                    0                       # DTB read hits
system.switch_cpus.itb.read_misses                  0                       # DTB read misses
system.switch_cpus.itb.read_acv                     0                       # DTB read access violations
system.switch_cpus.itb.read_accesses                0                       # DTB read accesses
system.switch_cpus.itb.write_hits                   0                       # DTB write hits
system.switch_cpus.itb.write_misses                 0                       # DTB write misses
system.switch_cpus.itb.write_acv                    0                       # DTB write access violations
system.switch_cpus.itb.write_accesses               0                       # DTB write accesses
system.switch_cpus.itb.data_hits                    0                       # DTB hits
system.switch_cpus.itb.data_misses                  0                       # DTB misses
system.switch_cpus.itb.data_acv                     0                       # DTB access violations
system.switch_cpus.itb.data_accesses                0                       # DTB accesses
system.cpu.workload.num_syscalls                   15                       # Number of system calls
system.switch_cpus.numCycles               1401277656                       # number of cpu cycles simulated
system.switch_cpus.numWorkItemsStarted              0                       # number of work items this cpu started
system.switch_cpus.numWorkItemsCompleted            0                       # number of work items this cpu completed
system.switch_cpus.fetch.icacheStallCycles    500584169                       # Number of cycles fetch is stalled on an Icache miss
system.switch_cpus.fetch.Insts             3295610035                       # Number of instructions fetch has processed
system.switch_cpus.fetch.Branches           591566960                       # Number of branches that fetch encountered
system.switch_cpus.fetch.predictedBranches    315495525                       # Number of branches that fetch has predicted taken
system.switch_cpus.fetch.Cycles             625235426                       # Number of cycles fetch has run and was not squashing or blocked
system.switch_cpus.fetch.SquashCycles       157674510                       # Number of cycles fetch has spent squashing
system.switch_cpus.fetch.BlockedCycles      122374152                       # Number of cycles fetch has spent blocked
system.switch_cpus.fetch.MiscStallCycles         1172                       # Number of cycles fetch has spent waiting on interrupts, or bad addresses, or out of MSHRs
system.switch_cpus.fetch.PendingTrapStallCycles         4651                       # Number of stall cycles due to pending traps
system.switch_cpus.fetch.IcacheWaitRetryStallCycles           30                       # Number of stall cycles due to full MSHR
system.switch_cpus.fetch.CacheLines         477911578                       # Number of cache lines fetched
system.switch_cpus.fetch.IcacheSquashes      15513539                       # Number of outstanding Icache misses that were squashed
system.switch_cpus.fetch.rateDist::samples   1368303173                       # Number of instructions fetched each cycle (Total)
system.switch_cpus.fetch.rateDist::mean      2.408538                       # Number of instructions fetched each cycle (Total)
system.switch_cpus.fetch.rateDist::stdev     3.122092                       # Number of instructions fetched each cycle (Total)
system.switch_cpus.fetch.rateDist::underflows            0      0.00%      0.00% # Number of instructions fetched each cycle (Total)
system.switch_cpus.fetch.rateDist::0        743067747     54.31%     54.31% # Number of instructions fetched each cycle (Total)
system.switch_cpus.fetch.rateDist::1         56435653      4.12%     58.43% # Number of instructions fetched each cycle (Total)
system.switch_cpus.fetch.rateDist::2         57919220      4.23%     62.66% # Number of instructions fetched each cycle (Total)
system.switch_cpus.fetch.rateDist::3         37045859      2.71%     65.37% # Number of instructions fetched each cycle (Total)
system.switch_cpus.fetch.rateDist::4        144122994     10.53%     75.90% # Number of instructions fetched each cycle (Total)
system.switch_cpus.fetch.rateDist::5         33577600      2.45%     78.36% # Number of instructions fetched each cycle (Total)
system.switch_cpus.fetch.rateDist::6         37190319      2.72%     81.08% # Number of instructions fetched each cycle (Total)
system.switch_cpus.fetch.rateDist::7         26873773      1.96%     83.04% # Number of instructions fetched each cycle (Total)
system.switch_cpus.fetch.rateDist::8        232070008     16.96%    100.00% # Number of instructions fetched each cycle (Total)
system.switch_cpus.fetch.rateDist::overflows            0      0.00%    100.00% # Number of instructions fetched each cycle (Total)
system.switch_cpus.fetch.rateDist::min_value            0                       # Number of instructions fetched each cycle (Total)
system.switch_cpus.fetch.rateDist::max_value            8                       # Number of instructions fetched each cycle (Total)
system.switch_cpus.fetch.rateDist::total   1368303173                       # Number of instructions fetched each cycle (Total)
system.switch_cpus.fetch.branchRate          0.422163                       # Number of branch fetches per cycle
system.switch_cpus.fetch.rate                2.351861                       # Number of inst fetches per cycle
system.switch_cpus.decode.IdleCycles        531685676                       # Number of cycles decode is idle
system.switch_cpus.decode.BlockedCycles     114042497                       # Number of cycles decode is blocked
system.switch_cpus.decode.RunCycles         593405218                       # Number of cycles decode is running
system.switch_cpus.decode.UnblockCycles      10254473                       # Number of cycles decode is unblocking
system.switch_cpus.decode.SquashCycles      118915308                       # Number of cycles decode is squashing
system.switch_cpus.decode.BranchResolved     55968329                       # Number of times decode resolved a branch
system.switch_cpus.decode.BranchMispred       1266502                       # Number of times decode detected a branch misprediction
system.switch_cpus.decode.DecodedInsts     3172457716                       # Number of instructions handled by decode
system.switch_cpus.decode.SquashedInsts       2480818                       # Number of squashed instructions handled by decode
system.switch_cpus.rename.SquashCycles      118915308                       # Number of cycles rename is squashing
system.switch_cpus.rename.IdleCycles        555258977                       # Number of cycles rename is idle
system.switch_cpus.rename.BlockCycles        20687376                       # Number of cycles rename is blocking
system.switch_cpus.rename.serializeStallCycles     66999915                       # count of cycles rename stalled for serializing inst
system.switch_cpus.rename.RunCycles         580365620                       # Number of cycles rename is running
system.switch_cpus.rename.UnblockCycles      26075976                       # Number of cycles rename is unblocking
system.switch_cpus.rename.RenamedInsts     3073066460                       # Number of instructions processed by rename
system.switch_cpus.rename.ROBFullEvents         95204                       # Number of times rename has blocked due to ROB full
system.switch_cpus.rename.IQFullEvents          52490                       # Number of times rename has blocked due to IQ full
system.switch_cpus.rename.LSQFullEvents      19271934                       # Number of times rename has blocked due to LSQ full
system.switch_cpus.rename.RenamedOperands   2281279304                       # Number of destination operands rename has renamed
system.switch_cpus.rename.RenameLookups    3949191931                       # Number of register rename lookups that rename has made
system.switch_cpus.rename.int_rename_lookups   3931973626                       # Number of integer rename lookups
system.switch_cpus.rename.fp_rename_lookups     17218305                       # Number of floating rename lookups
system.switch_cpus.rename.CommittedMaps    1500908499                       # Number of HB maps that are committed
system.switch_cpus.rename.UndoneMaps        780370785                       # Number of HB maps that are undone due to squashing
system.switch_cpus.rename.serializingInsts      3758429                       # count of serializing insts renamed
system.switch_cpus.rename.tempSerializingInsts          221                       # count of temporary serializing insts renamed
system.switch_cpus.rename.skidInsts          78181088                       # count of insts added to the skid buffer
system.switch_cpus.memDep0.insertedLoads    691607741                       # Number of loads inserted to the mem dependence unit.
system.switch_cpus.memDep0.insertedStores    206167358                       # Number of stores inserted to the mem dependence unit.
system.switch_cpus.memDep0.conflictingLoads     10837109                       # Number of conflicting loads.
system.switch_cpus.memDep0.conflictingStores      2523694                       # Number of conflicting stores.
system.switch_cpus.iq.iqInstsAdded         2833360424                       # Number of instructions added to the IQ (excludes non-spec)
system.switch_cpus.iq.iqNonSpecInstsAdded          360                       # Number of non-speculative instructions added to the IQ
system.switch_cpus.iq.iqInstsIssued        2518144682                       # Number of instructions issued
system.switch_cpus.iq.iqSquashedInstsIssued      8632122                       # Number of squashed instructions issued
system.switch_cpus.iq.iqSquashedInstsExamined    814243943                       # Number of squashed instructions iterated over during squash; mainly for profiling
system.switch_cpus.iq.iqSquashedOperandsExamined    506732457                       # Number of squashed operands that are examined and possibly removed from graph
system.switch_cpus.iq.iqSquashedNonSpecRemoved          285                       # Number of squashed non-spec instructions that were removed
system.switch_cpus.iq.issued_per_cycle::samples   1368303173                       # Number of insts issued each cycle
system.switch_cpus.iq.issued_per_cycle::mean     1.840341                       # Number of insts issued each cycle
system.switch_cpus.iq.issued_per_cycle::stdev     1.897489                       # Number of insts issued each cycle
system.switch_cpus.iq.issued_per_cycle::underflows            0      0.00%      0.00% # Number of insts issued each cycle
system.switch_cpus.iq.issued_per_cycle::0    497880939     36.39%     36.39% # Number of insts issued each cycle
system.switch_cpus.iq.issued_per_cycle::1    203218059     14.85%     51.24% # Number of insts issued each cycle
system.switch_cpus.iq.issued_per_cycle::2    219161286     16.02%     67.26% # Number of insts issued each cycle
system.switch_cpus.iq.issued_per_cycle::3    154959726     11.32%     78.58% # Number of insts issued each cycle
system.switch_cpus.iq.issued_per_cycle::4    148077317     10.82%     89.40% # Number of insts issued each cycle
system.switch_cpus.iq.issued_per_cycle::5     73415950      5.37%     94.77% # Number of insts issued each cycle
system.switch_cpus.iq.issued_per_cycle::6     52814822      3.86%     98.63% # Number of insts issued each cycle
system.switch_cpus.iq.issued_per_cycle::7     14753669      1.08%     99.71% # Number of insts issued each cycle
system.switch_cpus.iq.issued_per_cycle::8      4021405      0.29%    100.00% # Number of insts issued each cycle
system.switch_cpus.iq.issued_per_cycle::overflows            0      0.00%    100.00% # Number of insts issued each cycle
system.switch_cpus.iq.issued_per_cycle::min_value            0                       # Number of insts issued each cycle
system.switch_cpus.iq.issued_per_cycle::max_value            8                       # Number of insts issued each cycle
system.switch_cpus.iq.issued_per_cycle::total   1368303173                       # Number of insts issued each cycle
system.switch_cpus.iq.fu_full::No_OpClass            0      0.00%      0.00% # attempts to use FU when none available
system.switch_cpus.iq.fu_full::IntAlu        12447466     26.96%     26.96% # attempts to use FU when none available
system.switch_cpus.iq.fu_full::IntMult              0      0.00%     26.96% # attempts to use FU when none available
system.switch_cpus.iq.fu_full::IntDiv               0      0.00%     26.96% # attempts to use FU when none available
system.switch_cpus.iq.fu_full::FloatAdd             0      0.00%     26.96% # attempts to use FU when none available
system.switch_cpus.iq.fu_full::FloatCmp             0      0.00%     26.96% # attempts to use FU when none available
system.switch_cpus.iq.fu_full::FloatCvt             0      0.00%     26.96% # attempts to use FU when none available
system.switch_cpus.iq.fu_full::FloatMult            0      0.00%     26.96% # attempts to use FU when none available
system.switch_cpus.iq.fu_full::FloatDiv             0      0.00%     26.96% # attempts to use FU when none available
system.switch_cpus.iq.fu_full::FloatSqrt            0      0.00%     26.96% # attempts to use FU when none available
system.switch_cpus.iq.fu_full::SimdAdd              0      0.00%     26.96% # attempts to use FU when none available
system.switch_cpus.iq.fu_full::SimdAddAcc            0      0.00%     26.96% # attempts to use FU when none available
system.switch_cpus.iq.fu_full::SimdAlu              0      0.00%     26.96% # attempts to use FU when none available
system.switch_cpus.iq.fu_full::SimdCmp              0      0.00%     26.96% # attempts to use FU when none available
system.switch_cpus.iq.fu_full::SimdCvt              0      0.00%     26.96% # attempts to use FU when none available
system.switch_cpus.iq.fu_full::SimdMisc             0      0.00%     26.96% # attempts to use FU when none available
system.switch_cpus.iq.fu_full::SimdMult             0      0.00%     26.96% # attempts to use FU when none available
system.switch_cpus.iq.fu_full::SimdMultAcc            0      0.00%     26.96% # attempts to use FU when none available
system.switch_cpus.iq.fu_full::SimdShift            0      0.00%     26.96% # attempts to use FU when none available
system.switch_cpus.iq.fu_full::SimdShiftAcc            0      0.00%     26.96% # attempts to use FU when none available
system.switch_cpus.iq.fu_full::SimdSqrt             0      0.00%     26.96% # attempts to use FU when none available
system.switch_cpus.iq.fu_full::SimdFloatAdd            0      0.00%     26.96% # attempts to use FU when none available
system.switch_cpus.iq.fu_full::SimdFloatAlu            0      0.00%     26.96% # attempts to use FU when none available
system.switch_cpus.iq.fu_full::SimdFloatCmp            0      0.00%     26.96% # attempts to use FU when none available
system.switch_cpus.iq.fu_full::SimdFloatCvt            0      0.00%     26.96% # attempts to use FU when none available
system.switch_cpus.iq.fu_full::SimdFloatDiv            0      0.00%     26.96% # attempts to use FU when none available
system.switch_cpus.iq.fu_full::SimdFloatMisc            0      0.00%     26.96% # attempts to use FU when none available
system.switch_cpus.iq.fu_full::SimdFloatMult            0      0.00%     26.96% # attempts to use FU when none available
system.switch_cpus.iq.fu_full::SimdFloatMultAcc            0      0.00%     26.96% # attempts to use FU when none available
system.switch_cpus.iq.fu_full::SimdFloatSqrt            0      0.00%     26.96% # attempts to use FU when none available
system.switch_cpus.iq.fu_full::MemRead       22638396     49.04%     76.00% # attempts to use FU when none available
system.switch_cpus.iq.fu_full::MemWrite      11078905     24.00%    100.00% # attempts to use FU when none available
system.switch_cpus.iq.fu_full::IprAccess            0      0.00%    100.00% # attempts to use FU when none available
system.switch_cpus.iq.fu_full::InstPrefetch            0      0.00%    100.00% # attempts to use FU when none available
system.switch_cpus.iq.FU_type_0::No_OpClass      1763554      0.07%      0.07% # Type of FU issued
system.switch_cpus.iq.FU_type_0::IntAlu    1676960363     66.60%     66.67% # Type of FU issued
system.switch_cpus.iq.FU_type_0::IntMult      1048328      0.04%     66.71% # Type of FU issued
system.switch_cpus.iq.FU_type_0::IntDiv             0      0.00%     66.71% # Type of FU issued
system.switch_cpus.iq.FU_type_0::FloatAdd      4408884      0.18%     66.88% # Type of FU issued
system.switch_cpus.iq.FU_type_0::FloatCmp            1      0.00%     66.88% # Type of FU issued
system.switch_cpus.iq.FU_type_0::FloatCvt      2645355      0.11%     66.99% # Type of FU issued
system.switch_cpus.iq.FU_type_0::FloatMult            1      0.00%     66.99% # Type of FU issued
system.switch_cpus.iq.FU_type_0::FloatDiv       881769      0.04%     67.02% # Type of FU issued
system.switch_cpus.iq.FU_type_0::FloatSqrt            0      0.00%     67.02% # Type of FU issued
system.switch_cpus.iq.FU_type_0::SimdAdd            0      0.00%     67.02% # Type of FU issued
system.switch_cpus.iq.FU_type_0::SimdAddAcc            0      0.00%     67.02% # Type of FU issued
system.switch_cpus.iq.FU_type_0::SimdAlu            0      0.00%     67.02% # Type of FU issued
system.switch_cpus.iq.FU_type_0::SimdCmp            0      0.00%     67.02% # Type of FU issued
system.switch_cpus.iq.FU_type_0::SimdCvt            0      0.00%     67.02% # Type of FU issued
system.switch_cpus.iq.FU_type_0::SimdMisc            0      0.00%     67.02% # Type of FU issued
system.switch_cpus.iq.FU_type_0::SimdMult            0      0.00%     67.02% # Type of FU issued
system.switch_cpus.iq.FU_type_0::SimdMultAcc            0      0.00%     67.02% # Type of FU issued
system.switch_cpus.iq.FU_type_0::SimdShift            0      0.00%     67.02% # Type of FU issued
system.switch_cpus.iq.FU_type_0::SimdShiftAcc            0      0.00%     67.02% # Type of FU issued
system.switch_cpus.iq.FU_type_0::SimdSqrt            0      0.00%     67.02% # Type of FU issued
system.switch_cpus.iq.FU_type_0::SimdFloatAdd            0      0.00%     67.02% # Type of FU issued
system.switch_cpus.iq.FU_type_0::SimdFloatAlu            0      0.00%     67.02% # Type of FU issued
system.switch_cpus.iq.FU_type_0::SimdFloatCmp            0      0.00%     67.02% # Type of FU issued
system.switch_cpus.iq.FU_type_0::SimdFloatCvt            0      0.00%     67.02% # Type of FU issued
system.switch_cpus.iq.FU_type_0::SimdFloatDiv            0      0.00%     67.02% # Type of FU issued
system.switch_cpus.iq.FU_type_0::SimdFloatMisc            0      0.00%     67.02% # Type of FU issued
system.switch_cpus.iq.FU_type_0::SimdFloatMult            0      0.00%     67.02% # Type of FU issued
system.switch_cpus.iq.FU_type_0::SimdFloatMultAcc            0      0.00%     67.02% # Type of FU issued
system.switch_cpus.iq.FU_type_0::SimdFloatSqrt            0      0.00%     67.02% # Type of FU issued
system.switch_cpus.iq.FU_type_0::MemRead    640409433     25.43%     92.45% # Type of FU issued
system.switch_cpus.iq.FU_type_0::MemWrite    190026994      7.55%    100.00% # Type of FU issued
system.switch_cpus.iq.FU_type_0::IprAccess            0      0.00%    100.00% # Type of FU issued
system.switch_cpus.iq.FU_type_0::InstPrefetch            0      0.00%    100.00% # Type of FU issued
system.switch_cpus.iq.FU_type_0::total     2518144682                       # Type of FU issued
system.switch_cpus.iq.rate                   1.797035                       # Inst issue rate
system.switch_cpus.iq.fu_busy_cnt            46164767                       # FU busy when requested
system.switch_cpus.iq.fu_busy_rate           0.018333                       # FU busy rate (busy events/executed inst)
system.switch_cpus.iq.int_inst_queue_reads   6432274272                       # Number of integer instruction queue reads
system.switch_cpus.iq.int_inst_queue_writes   3634104299                       # Number of integer instruction queue writes
system.switch_cpus.iq.int_inst_queue_wakeup_accesses   2398803026                       # Number of integer instruction queue wakeup accesses
system.switch_cpus.iq.fp_inst_queue_reads     27115150                       # Number of floating instruction queue reads
system.switch_cpus.iq.fp_inst_queue_writes     13577849                       # Number of floating instruction queue writes
system.switch_cpus.iq.fp_inst_queue_wakeup_accesses     13321874                       # Number of floating instruction queue wakeup accesses
system.switch_cpus.iq.int_alu_accesses     2548822950                       # Number of integer alu accesses
system.switch_cpus.iq.fp_alu_accesses        13722945                       # Number of floating point alu accesses
system.switch_cpus.iew.lsq.thread0.forwLoads     14692005                       # Number of loads that had data forwarded from stores
system.switch_cpus.iew.lsq.thread0.invAddrLoads            0                       # Number of loads ignored due to an invalid address
system.switch_cpus.iew.lsq.thread0.squashedLoads    203626277                       # Number of loads squashed
system.switch_cpus.iew.lsq.thread0.ignoredResponses       391031                       # Number of memory responses ignored because the instruction is squashed
system.switch_cpus.iew.lsq.thread0.memOrderViolation        82162                       # Number of memory ordering violations
system.switch_cpus.iew.lsq.thread0.squashedStores     47895657                       # Number of stores squashed
system.switch_cpus.iew.lsq.thread0.invAddrSwpfs            0                       # Number of software prefetches ignored due to an invalid address
system.switch_cpus.iew.lsq.thread0.blockedLoads            0                       # Number of blocked loads due to partial load-store forwarding
system.switch_cpus.iew.lsq.thread0.rescheduledLoads          134                       # Number of loads that were rescheduled
system.switch_cpus.iew.lsq.thread0.cacheBlocked         6065                       # Number of times an access to memory failed due to the cache being blocked
system.switch_cpus.iew.iewIdleCycles                0                       # Number of cycles IEW is idle
system.switch_cpus.iew.iewSquashCycles      118915308                       # Number of cycles IEW is squashing
system.switch_cpus.iew.iewBlockCycles        10113365                       # Number of cycles IEW is blocking
system.switch_cpus.iew.iewUnblockCycles        340780                       # Number of cycles IEW is unblocking
system.switch_cpus.iew.iewDispatchedInsts   2875383236                       # Number of instructions dispatched to IQ
system.switch_cpus.iew.iewDispSquashedInsts     13873292                       # Number of squashed instructions skipped by dispatch
system.switch_cpus.iew.iewDispLoadInsts     691607741                       # Number of dispatched load instructions
system.switch_cpus.iew.iewDispStoreInsts    206167358                       # Number of dispatched store instructions
system.switch_cpus.iew.iewDispNonSpecInsts          212                       # Number of dispatched non-speculative instructions
system.switch_cpus.iew.iewIQFullEvents          62123                       # Number of times the IQ has become full, causing a stall
system.switch_cpus.iew.iewLSQFullEvents         32559                       # Number of times the LSQ has become full, causing a stall
system.switch_cpus.iew.memOrderViolationEvents        82162                       # Number of memory order violations
system.switch_cpus.iew.predictedTakenIncorrect     23684433                       # Number of branches that were predicted taken incorrectly
system.switch_cpus.iew.predictedNotTakenIncorrect     18033940                       # Number of branches that were predicted not taken incorrectly
system.switch_cpus.iew.branchMispredicts     41718373                       # Number of branch mispredicts detected at execute
system.switch_cpus.iew.iewExecutedInsts    2461066796                       # Number of executed instructions
system.switch_cpus.iew.iewExecLoadInsts     615507005                       # Number of load instructions executed
system.switch_cpus.iew.iewExecSquashedInsts     57077882                       # Number of squashed instructions skipped in execute
system.switch_cpus.iew.exec_swp                     0                       # number of swp insts executed
system.switch_cpus.iew.exec_nop              42022452                       # number of nop insts executed
system.switch_cpus.iew.exec_refs            802256559                       # number of memory reference insts executed
system.switch_cpus.iew.exec_branches        425218667                       # Number of branches executed
system.switch_cpus.iew.exec_stores          186749554                       # Number of stores executed
system.switch_cpus.iew.exec_rate             1.756302                       # Inst execution rate
system.switch_cpus.iew.wb_sent             2431129956                       # cumulative count of insts sent to commit
system.switch_cpus.iew.wb_count            2412124900                       # cumulative count of insts written-back
system.switch_cpus.iew.wb_producers        1495960256                       # num instructions producing a value
system.switch_cpus.iew.wb_consumers        1886252725                       # num instructions consuming a value
system.switch_cpus.iew.wb_penalized                 0                       # number of instrctions required to write to 'other' IQ
system.switch_cpus.iew.wb_rate               1.721375                       # insts written-back per cycle
system.switch_cpus.iew.wb_fanout             0.793086                       # average fanout of values written-back
system.switch_cpus.iew.wb_penalized_rate            0                       # fraction of instructions written-back that wrote to 'other' IQ
system.switch_cpus.commit.commitSquashedInsts    797732937                       # The number of squashed insts skipped by commit
system.switch_cpus.commit.commitNonSpecStalls           75                       # The number of times commit has been forced to stall to communicate backwards
system.switch_cpus.commit.branchMispredicts     34860597                       # The number of times a branch was mispredicted
system.switch_cpus.commit.committed_per_cycle::samples   1249387865                       # Number of insts commited each cycle
system.switch_cpus.commit.committed_per_cycle::mean     1.624898                       # Number of insts commited each cycle
system.switch_cpus.commit.committed_per_cycle::stdev     2.389783                       # Number of insts commited each cycle
system.switch_cpus.commit.committed_per_cycle::underflows            0      0.00%      0.00% # Number of insts commited each cycle
system.switch_cpus.commit.committed_per_cycle::0    601344521     48.13%     48.13% # Number of insts commited each cycle
system.switch_cpus.commit.committed_per_cycle::1    265116233     21.22%     69.35% # Number of insts commited each cycle
system.switch_cpus.commit.committed_per_cycle::2    110936302      8.88%     78.23% # Number of insts commited each cycle
system.switch_cpus.commit.committed_per_cycle::3     46447010      3.72%     81.95% # Number of insts commited each cycle
system.switch_cpus.commit.committed_per_cycle::4     47559343      3.81%     85.75% # Number of insts commited each cycle
system.switch_cpus.commit.committed_per_cycle::5     42495845      3.40%     89.16% # Number of insts commited each cycle
system.switch_cpus.commit.committed_per_cycle::6     27499245      2.20%     91.36% # Number of insts commited each cycle
system.switch_cpus.commit.committed_per_cycle::7     27829530      2.23%     93.58% # Number of insts commited each cycle
system.switch_cpus.commit.committed_per_cycle::8     80159836      6.42%    100.00% # Number of insts commited each cycle
system.switch_cpus.commit.committed_per_cycle::overflows            0      0.00%    100.00% # Number of insts commited each cycle
system.switch_cpus.commit.committed_per_cycle::min_value            0                       # Number of insts commited each cycle
system.switch_cpus.commit.committed_per_cycle::max_value            8                       # Number of insts commited each cycle
system.switch_cpus.commit.committed_per_cycle::total   1249387865                       # Number of insts commited each cycle
system.switch_cpus.commit.committedInsts   2030127332                       # Number of instructions committed
system.switch_cpus.commit.committedOps     2030127332                       # Number of ops (including micro ops) committed
system.switch_cpus.commit.swp_count                 0                       # Number of s/w prefetches committed
system.switch_cpus.commit.refs              646253159                       # Number of memory references committed
system.switch_cpus.commit.loads             487981459                       # Number of loads committed
system.switch_cpus.commit.membars                  30                       # Number of memory barriers committed
system.switch_cpus.commit.branches          355694384                       # Number of branches committed
system.switch_cpus.commit.fp_insts           13226860                       # Number of committed floating point instructions.
system.switch_cpus.commit.int_insts        1972407282                       # Number of committed integer instructions.
system.switch_cpus.commit.function_calls     16638159                       # Number of function calls committed.
system.switch_cpus.commit.bw_lim_events      80159836                       # number cycles where commit BW limit reached
system.switch_cpus.commit.bw_limited                0                       # number of insts not committed due to BW limits
system.switch_cpus.rob.rob_reads           3978064306                       # The number of ROB reads
system.switch_cpus.rob.rob_writes          5775459615                       # The number of ROB writes
system.switch_cpus.timesIdled                  326012                       # Number of times that the entire CPU went into an idle state and unscheduled itself
system.switch_cpus.idleCycles                32974483                       # Total number of cycles that the CPU has spent unscheduled due to idling
system.switch_cpus.committedInsts          2000000000                       # Number of Instructions Simulated
system.switch_cpus.committedOps            2000000000                       # Number of Ops (including micro ops) Simulated
system.switch_cpus.committedInsts_total    2000000000                       # Number of Instructions Simulated
system.switch_cpus.cpi                       0.700639                       # CPI: Cycles Per Instruction
system.switch_cpus.cpi_total                 0.700639                       # CPI: Total CPI of All Threads
system.switch_cpus.ipc                       1.427269                       # IPC: Instructions Per Cycle
system.switch_cpus.ipc_total                 1.427269                       # IPC: Total IPC of All Threads
system.switch_cpus.int_regfile_reads       3195828600                       # number of integer regfile reads
system.switch_cpus.int_regfile_writes      1827231410                       # number of integer regfile writes
system.switch_cpus.fp_regfile_reads           8969646                       # number of floating regfile reads
system.switch_cpus.fp_regfile_writes          8817737                       # number of floating regfile writes
system.switch_cpus.misc_regfile_reads         1764011                       # number of misc regfile reads
system.switch_cpus.misc_regfile_writes         881828                       # number of misc regfile writes
system.l2.tags.numFaultyBlocks_VDD1                 0                       # number of faulty blocks in the cache at VDD1 (lowest)
system.l2.tags.numFaultyBlocks_VDD2                 0                       # number of faulty blocks in the cache at VDD2 (mid)
system.l2.tags.numFaultyBlocks_VDD3                 0                       # number of faulty blocks in the cache at VDD3 (highest)
system.l2.tags.blockFaultRate_VDD1                  0                       # Proportion of faulty blocks in the cache at VDD1
system.l2.tags.blockFaultRate_VDD2                  0                       # Proportion of faulty blocks in the cache at VDD2
system.l2.tags.blockFaultRate_VDD3                  0                       # Proportion of faulty blocks in the cache at VDD3
system.l2.tags.cycles_VDD1                          0                       # Total number of cycles spent on VDD1
system.l2.tags.cycles_VDD2                          0                       # Total number of cycles spent on VDD2
system.l2.tags.cycles_VDD3                 2401934854                       # Total number of cycles spent on VDD3
system.l2.tags.accessEnergy_VDD1                    0                       # Total dynamic energy dissipated at VDD1 in nJ
system.l2.tags.accessEnergy_VDD2                    0                       # Total dynamic energy dissipated at VDD2 in nJ
system.l2.tags.accessEnergy_VDD3         685786.503833                       # Total dynamic energy dissipated at VDD3 in nJ
system.l2.tags.accessEnergy_tot          685786.503833                       # Total dynamic energy dissipated in nJ
system.l2.tags.transitionsTo_VDD1                   0                       # Total number of transitions to VDD1
system.l2.tags.transitionsTo_VDD2                   0                       # Total number of transitions to VDD2
system.l2.tags.transitionsTo_VDD3                   0                       # Total number of transitions to VDD3
system.l2.tags.avgConsecutiveCycles_VDD1          nan                       # Average number of consecutive cycles spent at VDD1
system.l2.tags.avgConsecutiveCycles_VDD2          nan                       # Average number of consecutive cycles spent at VDD2
system.l2.tags.avgConsecutiveCycles_VDD3          inf                       # Average number of consecutive cycles spent at VDD3
system.l2.tags.proportionExecTime_VDD1              0                       # Proportion of total execution time that was spent at VDD1 for this cache
system.l2.tags.proportionExecTime_VDD2              0                       # Proportion of total execution time that was spent at VDD2 for this cache
system.l2.tags.proportionExecTime_VDD3              1                       # Proportion of total execution time that was spent at VDD3 for this cache
system.l2.tags.staticPower_avg            5037.425790                       # Average static power of this cache over the entire execution
system.l2.tags.numUnchangedFaultyTo_VDD1            0                       # Total number of unchanged (faulty) blocks during DPCS transition to VDD1
system.l2.tags.numUnchangedFaultyTo_VDD2            0                       # Total number of unchanged (faulty) blocks during DPCS transition to VDD2
system.l2.tags.numUnchangedFaultyTo_VDD3            0                       # Total number of unchanged (faulty) blocks during DPCS transition to VDD3
system.l2.tags.numFaultyWriteBacksTo_VDD1            0                       # Total number of faulty writebacks during DPCS transition to VDD1
system.l2.tags.numFaultyWriteBacksTo_VDD2            0                       # Total number of faulty writebacks during DPCS transition to VDD2
system.l2.tags.numFaultyWriteBacksTo_VDD3            0                       # Total number of faulty writebacks during DPCS transition to VDD3
system.l2.tags.numInvalidateOnlyTo_VDD1             0                       # Total number of blocks only invalidated during DPCS transition to VDD1
system.l2.tags.numInvalidateOnlyTo_VDD2             0                       # Total number of blocks only invalidated during DPCS transition to VDD2
system.l2.tags.numInvalidateOnlyTo_VDD3             0                       # Total number of blocks only invalidated during DPCS transition to VDD3
system.l2.tags.numMadeAvailableTo_VDD1              0                       # Total number of blocks made available (faulty to non-faulty) during DPCS transition to VDD1
system.l2.tags.numMadeAvailableTo_VDD2              0                       # Total number of blocks made available (faulty to non-faulty) during DPCS transition to VDD2
system.l2.tags.numMadeAvailableTo_VDD3              0                       # Total number of blocks made available (faulty to non-faulty) during DPCS transition to VDD3
system.l2.tags.numUnchangedNotFaultyTo_VDD1            0                       # Total number of blocks unchanged (not faulty) during DPCS transition to VDD1
system.l2.tags.numUnchangedNotFaultyTo_VDD2            0                       # Total number of blocks unchanged (not faulty) during DPCS transition to VDD2
system.l2.tags.numUnchangedNotFaultyTo_VDD3            0                       # Total number of blocks unchanged (not faulty) during DPCS transition to VDD3
system.l2.tags.faultyWriteBackRateTo_VDD1          nan                       # Average number of writebacks caused by faulty blocks when changing to VDD1
system.l2.tags.faultyWriteBackRateTo_VDD2          nan                       # Average number of writebacks caused by faulty blocks when changing to VDD2
system.l2.tags.faultyWriteBackRateTo_VDD3          nan                       # Average number of writebacks caused by faulty blocks when changing to VDD3
system.l2.tags.replacements                    525790                       # number of replacements
system.l2.tags.tagsinuse                 32545.662582                       # Cycle average of tags in use
system.l2.tags.total_refs                     3034111                       # Total number of references to valid blocks.
system.l2.tags.sampled_refs                    558348                       # Sample count of references to valid blocks.
system.l2.tags.avg_refs                      5.434086                       # Average number of references to valid blocks.
system.l2.tags.warmup_cycle                         0                       # Cycle when the warmup percentage was hit.
system.l2.tags.occ_blocks::writebacks     3223.352819                       # Average occupied blocks per requestor
system.l2.tags.occ_blocks::switch_cpus.inst    83.722678                       # Average occupied blocks per requestor
system.l2.tags.occ_blocks::switch_cpus.data 27797.516078                       # Average occupied blocks per requestor
system.l2.tags.occ_blocks::cpu.inst         51.055885                       # Average occupied blocks per requestor
system.l2.tags.occ_blocks::cpu.data       1390.015123                       # Average occupied blocks per requestor
system.l2.tags.occ_percent::writebacks       0.098369                       # Average percentage of cache occupancy
system.l2.tags.occ_percent::switch_cpus.inst     0.002555                       # Average percentage of cache occupancy
system.l2.tags.occ_percent::switch_cpus.data     0.848313                       # Average percentage of cache occupancy
system.l2.tags.occ_percent::cpu.inst         0.001558                       # Average percentage of cache occupancy
system.l2.tags.occ_percent::cpu.data         0.042420                       # Average percentage of cache occupancy
system.l2.tags.occ_percent::total            0.993215                       # Average percentage of cache occupancy
system.l2.ReadReq_hits::switch_cpus.inst       653206                       # number of ReadReq hits
system.l2.ReadReq_hits::switch_cpus.data       564609                       # number of ReadReq hits
system.l2.ReadReq_hits::total                 1217815                       # number of ReadReq hits
system.l2.Writeback_hits::writebacks          1398518                       # number of Writeback hits
system.l2.Writeback_hits::total               1398518                       # number of Writeback hits
system.l2.ReadExReq_hits::switch_cpus.data       734238                       # number of ReadExReq hits
system.l2.ReadExReq_hits::total                734238                       # number of ReadExReq hits
system.l2.demand_hits::switch_cpus.inst        653206                       # number of demand (read+write) hits
system.l2.demand_hits::switch_cpus.data       1298847                       # number of demand (read+write) hits
system.l2.demand_hits::total                  1952053                       # number of demand (read+write) hits
system.l2.overall_hits::switch_cpus.inst       653206                       # number of overall hits
system.l2.overall_hits::switch_cpus.data      1298847                       # number of overall hits
system.l2.overall_hits::total                 1952053                       # number of overall hits
system.l2.ReadReq_misses::switch_cpus.inst          773                       # number of ReadReq misses
system.l2.ReadReq_misses::switch_cpus.data       489670                       # number of ReadReq misses
system.l2.ReadReq_misses::total                490443                       # number of ReadReq misses
system.l2.ReadExReq_misses::switch_cpus.data        35238                       # number of ReadExReq misses
system.l2.ReadExReq_misses::total               35238                       # number of ReadExReq misses
system.l2.demand_misses::switch_cpus.inst          773                       # number of demand (read+write) misses
system.l2.demand_misses::switch_cpus.data       524908                       # number of demand (read+write) misses
system.l2.demand_misses::total                 525681                       # number of demand (read+write) misses
system.l2.overall_misses::switch_cpus.inst          773                       # number of overall misses
system.l2.overall_misses::switch_cpus.data       524908                       # number of overall misses
system.l2.overall_misses::total                525681                       # number of overall misses
system.l2.ReadReq_miss_latency::switch_cpus.inst     74417000                       # number of ReadReq miss cycles
system.l2.ReadReq_miss_latency::switch_cpus.data  45613766000                       # number of ReadReq miss cycles
system.l2.ReadReq_miss_latency::total     45688183000                       # number of ReadReq miss cycles
system.l2.ReadExReq_miss_latency::switch_cpus.data   2515504250                       # number of ReadExReq miss cycles
system.l2.ReadExReq_miss_latency::total    2515504250                       # number of ReadExReq miss cycles
system.l2.demand_miss_latency::switch_cpus.inst     74417000                       # number of demand (read+write) miss cycles
system.l2.demand_miss_latency::switch_cpus.data  48129270250                       # number of demand (read+write) miss cycles
system.l2.demand_miss_latency::total      48203687250                       # number of demand (read+write) miss cycles
system.l2.overall_miss_latency::switch_cpus.inst     74417000                       # number of overall miss cycles
system.l2.overall_miss_latency::switch_cpus.data  48129270250                       # number of overall miss cycles
system.l2.overall_miss_latency::total     48203687250                       # number of overall miss cycles
system.l2.ReadReq_accesses::switch_cpus.inst       653979                       # number of ReadReq accesses(hits+misses)
system.l2.ReadReq_accesses::switch_cpus.data      1054279                       # number of ReadReq accesses(hits+misses)
system.l2.ReadReq_accesses::total             1708258                       # number of ReadReq accesses(hits+misses)
system.l2.Writeback_accesses::writebacks      1398518                       # number of Writeback accesses(hits+misses)
system.l2.Writeback_accesses::total           1398518                       # number of Writeback accesses(hits+misses)
system.l2.ReadExReq_accesses::switch_cpus.data       769476                       # number of ReadExReq accesses(hits+misses)
system.l2.ReadExReq_accesses::total            769476                       # number of ReadExReq accesses(hits+misses)
system.l2.demand_accesses::switch_cpus.inst       653979                       # number of demand (read+write) accesses
system.l2.demand_accesses::switch_cpus.data      1823755                       # number of demand (read+write) accesses
system.l2.demand_accesses::total              2477734                       # number of demand (read+write) accesses
system.l2.overall_accesses::switch_cpus.inst       653979                       # number of overall (read+write) accesses
system.l2.overall_accesses::switch_cpus.data      1823755                       # number of overall (read+write) accesses
system.l2.overall_accesses::total             2477734                       # number of overall (read+write) accesses
system.l2.ReadReq_miss_rate::switch_cpus.inst     0.001182                       # miss rate for ReadReq accesses
system.l2.ReadReq_miss_rate::switch_cpus.data     0.464460                       # miss rate for ReadReq accesses
system.l2.ReadReq_miss_rate::total           0.287101                       # miss rate for ReadReq accesses
system.l2.ReadExReq_miss_rate::switch_cpus.data     0.045795                       # miss rate for ReadExReq accesses
system.l2.ReadExReq_miss_rate::total         0.045795                       # miss rate for ReadExReq accesses
system.l2.demand_miss_rate::switch_cpus.inst     0.001182                       # miss rate for demand accesses
system.l2.demand_miss_rate::switch_cpus.data     0.287817                       # miss rate for demand accesses
system.l2.demand_miss_rate::total            0.212162                       # miss rate for demand accesses
system.l2.overall_miss_rate::switch_cpus.inst     0.001182                       # miss rate for overall accesses
system.l2.overall_miss_rate::switch_cpus.data     0.287817                       # miss rate for overall accesses
system.l2.overall_miss_rate::total           0.212162                       # miss rate for overall accesses
system.l2.ReadReq_avg_miss_latency::switch_cpus.inst 96270.375162                       # average ReadReq miss latency
system.l2.ReadReq_avg_miss_latency::switch_cpus.data 93152.053424                       # average ReadReq miss latency
system.l2.ReadReq_avg_miss_latency::total 93156.968292                       # average ReadReq miss latency
system.l2.ReadExReq_avg_miss_latency::switch_cpus.data 71386.124354                       # average ReadExReq miss latency
system.l2.ReadExReq_avg_miss_latency::total 71386.124354                       # average ReadExReq miss latency
system.l2.demand_avg_miss_latency::switch_cpus.inst 96270.375162                       # average overall miss latency
system.l2.demand_avg_miss_latency::switch_cpus.data 91690.868209                       # average overall miss latency
system.l2.demand_avg_miss_latency::total 91697.602253                       # average overall miss latency
system.l2.overall_avg_miss_latency::switch_cpus.inst 96270.375162                       # average overall miss latency
system.l2.overall_avg_miss_latency::switch_cpus.data 91690.868209                       # average overall miss latency
system.l2.overall_avg_miss_latency::total 91697.602253                       # average overall miss latency
system.l2.blocked_cycles::no_mshrs                  0                       # number of cycles access was blocked
system.l2.blocked_cycles::no_targets                0                       # number of cycles access was blocked
system.l2.blocked::no_mshrs                         0                       # number of cycles access was blocked
system.l2.blocked::no_targets                       0                       # number of cycles access was blocked
system.l2.avg_blocked_cycles::no_mshrs            nan                       # average number of cycles each access was blocked
system.l2.avg_blocked_cycles::no_targets          nan                       # average number of cycles each access was blocked
system.l2.fast_writes                               0                       # number of fast writes performed
system.l2.cache_copies                              0                       # number of cache copies performed
system.l2.writebacks::writebacks               414650                       # number of writebacks
system.l2.writebacks::total                    414650                       # number of writebacks
system.l2.ReadReq_mshr_misses::switch_cpus.inst          773                       # number of ReadReq MSHR misses
system.l2.ReadReq_mshr_misses::switch_cpus.data       489670                       # number of ReadReq MSHR misses
system.l2.ReadReq_mshr_misses::total           490443                       # number of ReadReq MSHR misses
system.l2.ReadExReq_mshr_misses::switch_cpus.data        35238                       # number of ReadExReq MSHR misses
system.l2.ReadExReq_mshr_misses::total          35238                       # number of ReadExReq MSHR misses
system.l2.demand_mshr_misses::switch_cpus.inst          773                       # number of demand (read+write) MSHR misses
system.l2.demand_mshr_misses::switch_cpus.data       524908                       # number of demand (read+write) MSHR misses
system.l2.demand_mshr_misses::total            525681                       # number of demand (read+write) MSHR misses
system.l2.overall_mshr_misses::switch_cpus.inst          773                       # number of overall MSHR misses
system.l2.overall_mshr_misses::switch_cpus.data       524908                       # number of overall MSHR misses
system.l2.overall_mshr_misses::total           525681                       # number of overall MSHR misses
system.l2.ReadReq_mshr_miss_latency::switch_cpus.inst     65536000                       # number of ReadReq MSHR miss cycles
system.l2.ReadReq_mshr_miss_latency::switch_cpus.data  39985714000                       # number of ReadReq MSHR miss cycles
system.l2.ReadReq_mshr_miss_latency::total  40051250000                       # number of ReadReq MSHR miss cycles
system.l2.ReadExReq_mshr_miss_latency::switch_cpus.data   2110699750                       # number of ReadExReq MSHR miss cycles
system.l2.ReadExReq_mshr_miss_latency::total   2110699750                       # number of ReadExReq MSHR miss cycles
[...]
system.cpu.dcache.tags.accessEnergy_tot  19723025.962884                       # Total dynamic energy dissipated in nJ
system.cpu.dcache.tags.transitionsTo_VDD1            0                       # Total number of transitions to VDD1
system.cpu.dcache.tags.transitionsTo_VDD2            0                       # Total number of transitions to VDD2
system.cpu.dcache.tags.transitionsTo_VDD3            0                       # Total number of transitions to VDD3
system.cpu.dcache.tags.avgConsecutiveCycles_VDD1          nan                       # Average number of consecutive cycles spent at VDD1
system.cpu.dcache.tags.avgConsecutiveCycles_VDD2          nan                       # Average number of consecutive cycles spent at VDD2
system.cpu.dcache.tags.avgConsecutiveCycles_VDD3          inf                       # Average number of consecutive cycles spent at VDD3
system.cpu.dcache.tags.proportionExecTime_VDD1            0                       # Proportion of total execution time that was spent at VDD1 for this cache
system.cpu.dcache.tags.proportionExecTime_VDD2            0                       # Proportion of total execution time that was spent at VDD2 for this cache
system.cpu.dcache.tags.proportionExecTime_VDD3            1                       # Proportion of total execution time that was spent at VDD3 for this cache
system.cpu.dcache.tags.staticPower_avg     157.356710                       # Average static power of this cache over the entire execution
system.cpu.dcache.tags.numUnchangedFaultyTo_VDD1            0                       # Total number of unchanged (faulty) blocks during DPCS transition to VDD1
system.cpu.dcache.tags.numUnchangedFaultyTo_VDD2            0                       # Total number of unchanged (faulty) blocks during DPCS transition to VDD2
system.cpu.dcache.tags.numUnchangedFaultyTo_VDD3            0                       # Total number of unchanged (faulty) blocks during DPCS transition to VDD3
system.cpu.dcache.tags.numFaultyWriteBacksTo_VDD1            0                       # Total number of faulty writebacks during DPCS transition to VDD1
system.cpu.dcache.tags.numFaultyWriteBacksTo_VDD2            0                       # Total number of faulty writebacks during DPCS transition to VDD2
system.cpu.dcache.tags.numFaultyWriteBacksTo_VDD3            0                       # Total number of faulty writebacks during DPCS transition to VDD3
system.cpu.dcache.tags.numInvalidateOnlyTo_VDD1            0                       # Total number of blocks only invalidated during DPCS transition to VDD1
system.cpu.dcache.tags.numInvalidateOnlyTo_VDD2            0                       # Total number of blocks only invalidated during DPCS transition to VDD2
system.cpu.dcache.tags.numInvalidateOnlyTo_VDD3            0                       # Total number of blocks only invalidated during DPCS transition to VDD3
system.cpu.dcache.tags.numMadeAvailableTo_VDD1            0                       # Total number of blocks made available (faulty to non-faulty) during DPCS transition to VDD1
system.cpu.dcache.tags.numMadeAvailableTo_VDD2            0                       # Total number of blocks made available (faulty to non-faulty) during DPCS transition to VDD2
system.cpu.dcache.tags.numMadeAvailableTo_VDD3            0                       # Total number of blocks made available (faulty to non-faulty) during DPCS transition to VDD3
system.cpu.dcache.tags.numUnchangedNotFaultyTo_VDD1            0                       # Total number of blocks unchanged (not faulty) during DPCS transition to VDD1
system.cpu.dcache.tags.numUnchangedNotFaultyTo_VDD2            0                       # Total number of blocks unchanged (not faulty) during DPCS transition to VDD2
system.cpu.dcache.tags.numUnchangedNotFaultyTo_VDD3            0                       # Total number of blocks unchanged (not faulty) during DPCS transition to VDD3
system.cpu.dcache.tags.faultyWriteBackRateTo_VDD1          nan                       # Average number of writebacks caused by faulty blocks when changing to VDD1
system.cpu.dcache.tags.faultyWriteBackRateTo_VDD2          nan                       # Average number of writebacks caused by faulty blocks when changing to VDD2
system.cpu.dcache.tags.faultyWriteBackRateTo_VDD3          nan                       # Average number of writebacks caused by faulty blocks when changing to VDD3
system.cpu.dcache.tags.replacements           1823755                       # number of replacements
system.cpu.dcache.tags.tagsinuse                 1024                       # Cycle average of tags in use
system.cpu.dcache.tags.total_refs           866379322                       # Total number of references to valid blocks.
system.cpu.dcache.tags.sampled_refs           1824779                       # Sample count of references to valid blocks.
system.cpu.dcache.tags.avg_refs            474.785890                       # Average number of references to valid blocks.
system.cpu.dcache.tags.warmup_cycle                 0                       # Cycle when the warmup percentage was hit.
system.cpu.dcache.tags.occ_blocks::switch_cpus.data   976.379179                       # Average occupied blocks per requestor
system.cpu.dcache.tags.occ_blocks::cpu.data    47.620821                       # Average occupied blocks per requestor
system.cpu.dcache.tags.occ_percent::switch_cpus.data     0.953495                       # Average percentage of cache occupancy
system.cpu.dcache.tags.occ_percent::cpu.data     0.046505                       # Average percentage of cache occupancy
system.cpu.dcache.tags.occ_percent::total            1                       # Average percentage of cache occupancy
system.cpu.dcache.ReadReq_hits::switch_cpus.data    596589444                       # number of ReadReq hits
system.cpu.dcache.ReadReq_hits::total       596589444                       # number of ReadReq hits
system.cpu.dcache.WriteReq_hits::switch_cpus.data    155517283                       # number of WriteReq hits
system.cpu.dcache.WriteReq_hits::total      155517283                       # number of WriteReq hits
system.cpu.dcache.LoadLockedReq_hits::switch_cpus.data           27                       # number of LoadLockedReq hits
system.cpu.dcache.LoadLockedReq_hits::total           27                       # number of LoadLockedReq hits
system.cpu.dcache.StoreCondReq_hits::switch_cpus.data           30                       # number of StoreCondReq hits
system.cpu.dcache.StoreCondReq_hits::total           30                       # number of StoreCondReq hits
system.cpu.dcache.demand_hits::switch_cpus.data    752106727                       # number of demand (read+write) hits
system.cpu.dcache.demand_hits::total        752106727                       # number of demand (read+write) hits
system.cpu.dcache.overall_hits::switch_cpus.data    752106727                       # number of overall hits
system.cpu.dcache.overall_hits::total       752106727                       # number of overall hits
system.cpu.dcache.ReadReq_misses::switch_cpus.data      1679906                       # number of ReadReq misses
system.cpu.dcache.ReadReq_misses::total       1679906                       # number of ReadReq misses
system.cpu.dcache.WriteReq_misses::switch_cpus.data      2754387                       # number of WriteReq misses
system.cpu.dcache.WriteReq_misses::total      2754387                       # number of WriteReq misses
system.cpu.dcache.LoadLockedReq_misses::switch_cpus.data            3                       # number of LoadLockedReq misses
system.cpu.dcache.LoadLockedReq_misses::total            3                       # number of LoadLockedReq misses
system.cpu.dcache.demand_misses::switch_cpus.data      4434293                       # number of demand (read+write) misses
system.cpu.dcache.demand_misses::total        4434293                       # number of demand (read+write) misses
system.cpu.dcache.overall_misses::switch_cpus.data      4434293                       # number of overall misses
system.cpu.dcache.overall_misses::total       4434293                       # number of overall misses
system.cpu.dcache.ReadReq_miss_latency::switch_cpus.data  86387388250                       # number of ReadReq miss cycles
system.cpu.dcache.ReadReq_miss_latency::total  86387388250                       # number of ReadReq miss cycles
system.cpu.dcache.WriteReq_miss_latency::switch_cpus.data  22266373100                       # number of WriteReq miss cycles
system.cpu.dcache.WriteReq_miss_latency::total  22266373100                       # number of WriteReq miss cycles
system.cpu.dcache.LoadLockedReq_miss_latency::switch_cpus.data       254250                       # number of LoadLockedReq miss cycles
system.cpu.dcache.LoadLockedReq_miss_latency::total       254250                       # number of LoadLockedReq miss cycles
system.cpu.dcache.demand_miss_latency::switch_cpus.data 108653761350                       # number of demand (read+write) miss cycles
system.cpu.dcache.demand_miss_latency::total 108653761350                       # number of demand (read+write) miss cycles
system.cpu.dcache.overall_miss_latency::switch_cpus.data 108653761350                       # number of overall miss cycles
system.cpu.dcache.overall_miss_latency::total 108653761350                       # number of overall miss cycles
system.cpu.dcache.ReadReq_accesses::switch_cpus.data    598269350                       # number of ReadReq accesses(hits+misses)
system.cpu.dcache.ReadReq_accesses::total    598269350                       # number of ReadReq accesses(hits+misses)
system.cpu.dcache.WriteReq_accesses::switch_cpus.data    158271670                       # number of WriteReq accesses(hits+misses)
system.cpu.dcache.WriteReq_accesses::total    158271670                       # number of WriteReq accesses(hits+misses)
system.cpu.dcache.LoadLockedReq_accesses::switch_cpus.data           30                       # number of LoadLockedReq accesses(hits+misses)
system.cpu.dcache.LoadLockedReq_accesses::total           30                       # number of LoadLockedReq accesses(hits+misses)
system.cpu.dcache.StoreCondReq_accesses::switch_cpus.data           30                       # number of StoreCondReq accesses(hits+misses)
system.cpu.dcache.StoreCondReq_accesses::total           30                       # number of StoreCondReq accesses(hits+misses)
system.cpu.dcache.demand_accesses::switch_cpus.data    756541020                       # number of demand (read+write) accesses
system.cpu.dcache.demand_accesses::total    756541020                       # number of demand (read+write) accesses
system.cpu.dcache.overall_accesses::switch_cpus.data    756541020                       # number of overall (read+write) accesses
system.cpu.dcache.overall_accesses::total    756541020                       # number of overall (read+write) accesses
system.cpu.dcache.ReadReq_miss_rate::switch_cpus.data     0.002808                       # miss rate for ReadReq accesses
system.cpu.dcache.ReadReq_miss_rate::total     0.002808                       # miss rate for ReadReq accesses
system.cpu.dcache.WriteReq_miss_rate::switch_cpus.data     0.017403                       # miss rate for WriteReq accesses
system.cpu.dcache.WriteReq_miss_rate::total     0.017403                       # miss rate for WriteReq accesses
system.cpu.dcache.LoadLockedReq_miss_rate::switch_cpus.data     0.100000                       # miss rate for LoadLockedReq accesses
system.cpu.dcache.LoadLockedReq_miss_rate::total     0.100000                       # miss rate for LoadLockedReq accesses
system.cpu.dcache.demand_miss_rate::switch_cpus.data     0.005861                       # miss rate for demand accesses
system.cpu.dcache.demand_miss_rate::total     0.005861                       # miss rate for demand accesses
system.cpu.dcache.overall_miss_rate::switch_cpus.data     0.005861                       # miss rate for overall accesses
system.cpu.dcache.overall_miss_rate::total     0.005861                       # miss rate for overall accesses
system.cpu.dcache.ReadReq_avg_miss_latency::switch_cpus.data 51423.941727                       # average ReadReq miss latency
system.cpu.dcache.ReadReq_avg_miss_latency::total 51423.941727                       # average ReadReq miss latency
system.cpu.dcache.WriteReq_avg_miss_latency::switch_cpus.data  8083.966814                       # average WriteReq miss latency
system.cpu.dcache.WriteReq_avg_miss_latency::total  8083.966814                       # average WriteReq miss latency
system.cpu.dcache.LoadLockedReq_avg_miss_latency::switch_cpus.data        84750                       # average LoadLockedReq miss latency
system.cpu.dcache.LoadLockedReq_avg_miss_latency::total        84750                       # average LoadLockedReq miss latency
system.cpu.dcache.demand_avg_miss_latency::switch_cpus.data 24503.063138                       # average overall miss latency
system.cpu.dcache.demand_avg_miss_latency::total 24503.063138                       # average overall miss latency
system.cpu.dcache.overall_avg_miss_latency::switch_cpus.data 24503.063138                       # average overall miss latency
system.cpu.dcache.overall_avg_miss_latency::total 24503.063138                       # average overall miss latency
system.cpu.dcache.blocked_cycles::no_mshrs        24653                       # number of cycles access was blocked
system.cpu.dcache.blocked_cycles::no_targets            0                       # number of cycles access was blocked
system.cpu.dcache.blocked::no_mshrs              5108                       # number of cycles access was blocked
system.cpu.dcache.blocked::no_targets               0                       # number of cycles access was blocked
system.cpu.dcache.avg_blocked_cycles::no_mshrs     4.826351                       # average number of cycles each access was blocked
system.cpu.dcache.avg_blocked_cycles::no_targets          nan                       # average number of cycles each access was blocked
system.cpu.dcache.fast_writes                       0                       # number of fast writes performed
system.cpu.dcache.cache_copies                      0                       # number of cache copies performed
system.cpu.dcache.writebacks::writebacks      1398518                       # number of writebacks
system.cpu.dcache.writebacks::total           1398518                       # number of writebacks
system.cpu.dcache.ReadReq_mshr_hits::switch_cpus.data       625504                       # number of ReadReq MSHR hits
system.cpu.dcache.ReadReq_mshr_hits::total       625504                       # number of ReadReq MSHR hits
system.cpu.dcache.WriteReq_mshr_hits::switch_cpus.data      1985034                       # number of WriteReq MSHR hits
system.cpu.dcache.WriteReq_mshr_hits::total      1985034                       # number of WriteReq MSHR hits
system.cpu.dcache.LoadLockedReq_mshr_hits::switch_cpus.data            3                       # number of LoadLockedReq MSHR hits
system.cpu.dcache.LoadLockedReq_mshr_hits::total            3                       # number of LoadLockedReq MSHR hits
system.cpu.dcache.demand_mshr_hits::switch_cpus.data      2610538                       # number of demand (read+write) MSHR hits
system.cpu.dcache.demand_mshr_hits::total      2610538                       # number of demand (read+write) MSHR hits
system.cpu.dcache.overall_mshr_hits::switch_cpus.data      2610538                       # number of overall MSHR hits
system.cpu.dcache.overall_mshr_hits::total      2610538                       # number of overall MSHR hits
system.cpu.dcache.ReadReq_mshr_misses::switch_cpus.data      1054402                       # number of ReadReq MSHR misses
system.cpu.dcache.ReadReq_mshr_misses::total      1054402                       # number of ReadReq MSHR misses
system.cpu.dcache.WriteReq_mshr_misses::switch_cpus.data       769353                       # number of WriteReq MSHR misses
system.cpu.dcache.WriteReq_mshr_misses::total       769353                       # number of WriteReq MSHR misses
system.cpu.dcache.demand_mshr_misses::switch_cpus.data      1823755                       # number of demand (read+write) MSHR misses
system.cpu.dcache.demand_mshr_misses::total      1823755                       # number of demand (read+write) MSHR misses
system.cpu.dcache.overall_mshr_misses::switch_cpus.data      1823755                       # number of overall MSHR misses
system.cpu.dcache.overall_mshr_misses::total      1823755                       # number of overall MSHR misses
system.cpu.dcache.ReadReq_mshr_miss_latency::switch_cpus.data  47828509250                       # number of ReadReq MSHR miss cycles
system.cpu.dcache.ReadReq_mshr_miss_latency::total  47828509250                       # number of ReadReq MSHR miss cycles
system.cpu.dcache.WriteReq_mshr_miss_latency::switch_cpus.data   4873365961                       # number of WriteReq MSHR miss cycles
system.cpu.dcache.WriteReq_mshr_miss_latency::total   4873365961                       # number of WriteReq MSHR miss cycles
system.cpu.dcache.demand_mshr_miss_latency::switch_cpus.data  52701875211                       # number of demand (read+write) MSHR miss cycles
system.cpu.dcache.demand_mshr_miss_latency::total  52701875211                       # number of demand (read+write) MSHR miss cycles
system.cpu.dcache.overall_mshr_miss_latency::switch_cpus.data  52701875211                       # number of overall MSHR miss cycles
system.cpu.dcache.overall_mshr_miss_latency::total  52701875211                       # number of overall MSHR miss cycles
system.cpu.dcache.ReadReq_mshr_miss_rate::switch_cpus.data     0.001762                       # mshr miss rate for ReadReq accesses
system.cpu.dcache.ReadReq_mshr_miss_rate::total     0.001762                       # mshr miss rate for ReadReq accesses
system.cpu.dcache.WriteReq_mshr_miss_rate::switch_cpus.data     0.004861                       # mshr miss rate for WriteReq accesses
system.cpu.dcache.WriteReq_mshr_miss_rate::total     0.004861                       # mshr miss rate for WriteReq accesses
system.cpu.dcache.demand_mshr_miss_rate::switch_cpus.data     0.002411                       # mshr miss rate for demand accesses
system.cpu.dcache.demand_mshr_miss_rate::total     0.002411                       # mshr miss rate for demand accesses
system.cpu.dcache.overall_mshr_miss_rate::switch_cpus.data     0.002411                       # mshr miss rate for overall accesses
system.cpu.dcache.overall_mshr_miss_rate::total     0.002411                       # mshr miss rate for overall accesses
system.cpu.dcache.ReadReq_avg_mshr_miss_latency::switch_cpus.data 45360.791472                       # average ReadReq mshr miss latency
system.cpu.dcache.ReadReq_avg_mshr_miss_latency::total 45360.791472                       # average ReadReq mshr miss latency
system.cpu.dcache.WriteReq_avg_mshr_miss_latency::switch_cpus.data  6334.369218                       # average WriteReq mshr miss latency
system.cpu.dcache.WriteReq_avg_mshr_miss_latency::total  6334.369218                       # average WriteReq mshr miss latency
system.cpu.dcache.demand_avg_mshr_miss_latency::switch_cpus.data 28897.453447                       # average overall mshr miss latency
system.cpu.dcache.demand_avg_mshr_miss_latency::total 28897.453447                       # average overall mshr miss latency
system.cpu.dcache.overall_avg_mshr_miss_latency::switch_cpus.data 28897.453447                       # average overall mshr miss latency
system.cpu.dcache.overall_avg_mshr_miss_latency::total 28897.453447                       # average overall mshr miss latency
system.cpu.dcache.no_allocate_misses                0                       # Number of misses that were no-allocate

---------- End Simulation Statistics   ----------
