
---------- Begin Simulation Statistics ----------
sim_seconds                                  0.568769                       # Number of seconds simulated
sim_ticks                                568769379282                       # Number of ticks simulated
final_tick                               901988733375                       # Number of ticks from beginning of simulation (restored from checkpoints and never reset)
sim_freq                                 1000000000000                       # Frequency of simulated ticks
host_inst_rate                                 193984                       # Simulator instruction rate (inst/s)
host_op_rate                                   193984                       # Simulator op (including micro ops) rate (op/s)
host_tick_rate                               36777425                       # Simulator tick rate (ticks/s)
host_mem_usage                                2348248                       # Number of bytes of host memory used
host_seconds                                 15465.18                       # Real time elapsed on the host
sim_insts                                  3000000001                       # Number of instructions simulated
sim_ops                                    3000000001                       # Number of ops (including micro ops) simulated
system.mem_ctrls.bytes_read::switch_cpus.inst         7744                       # Number of bytes read from this memory
system.mem_ctrls.bytes_read::switch_cpus.data     28496000                       # Number of bytes read from this memory
system.mem_ctrls.bytes_read::total           28503744                       # Number of bytes read from this memory
system.mem_ctrls.bytes_inst_read::switch_cpus.inst         7744                       # Number of instructions bytes read from this memory
system.mem_ctrls.bytes_inst_read::total          7744                       # Number of instructions bytes read from this memory
system.mem_ctrls.bytes_written::writebacks     22661120                       # Number of bytes written to this memory
system.mem_ctrls.bytes_written::total        22661120                       # Number of bytes written to this memory
system.mem_ctrls.num_reads::switch_cpus.inst          121                       # Number of read requests responded to by this memory
system.mem_ctrls.num_reads::switch_cpus.data       445250                       # Number of read requests responded to by this memory
system.mem_ctrls.num_reads::total              445371                       # Number of read requests responded to by this memory
system.mem_ctrls.num_writes::writebacks        354080                       # Number of write requests responded to by this memory
system.mem_ctrls.num_writes::total             354080                       # Number of write requests responded to by this memory
system.mem_ctrls.bw_read::switch_cpus.inst        13615                       # Total read bandwidth from this memory (bytes/s)
system.mem_ctrls.bw_read::switch_cpus.data     50101150                       # Total read bandwidth from this memory (bytes/s)
system.mem_ctrls.bw_read::total              50114765                       # Total read bandwidth from this memory (bytes/s)
system.mem_ctrls.bw_inst_read::switch_cpus.inst        13615                       # Instruction read bandwidth from this memory (bytes/s)
system.mem_ctrls.bw_inst_read::total            13615                       # Instruction read bandwidth from this memory (bytes/s)
system.mem_ctrls.bw_write::writebacks        39842370                       # Write bandwidth from this memory (bytes/s)
system.mem_ctrls.bw_write::total             39842370                       # Write bandwidth from this memory (bytes/s)
system.mem_ctrls.bw_total::writebacks        39842370                       # Total bandwidth to/from this memory (bytes/s)
system.mem_ctrls.bw_total::switch_cpus.inst        13615                       # Total bandwidth to/from this memory (bytes/s)
system.mem_ctrls.bw_total::switch_cpus.data     50101150                       # Total bandwidth to/from this memory (bytes/s)
system.mem_ctrls.bw_total::total             89957135                       # Total bandwidth to/from this memory (bytes/s)
system.mem_ctrls.readReqs                      445371                       # Total number of read requests accepted by DRAM controller
system.mem_ctrls.writeReqs                     354080                       # Total number of write requests accepted by DRAM controller
system.mem_ctrls.readBursts                    445371                       # Total number of DRAM read bursts. Each DRAM read request translates to either one or multiple DRAM read bursts
system.mem_ctrls.writeBursts                   354080                       # Total number of DRAM write bursts. Each DRAM write request translates to either one or multiple DRAM write bursts
system.mem_ctrls.bytesRead                   28503744                       # Total number of bytes read from memory
system.mem_ctrls.bytesWritten                22661120                       # Total number of bytes written to memory
system.mem_ctrls.bytesConsumedRd             28503744                       # bytesRead derated as per pkt->getSize()
system.mem_ctrls.bytesConsumedWr             22661120                       # bytesWritten derated as per pkt->getSize()
system.mem_ctrls.servicedByWrQ                     12                       # Number of DRAM read bursts serviced by write Q
system.mem_ctrls.neitherReadNorWrite                0                       # Reqs where no action is needed
system.mem_ctrls.perBankRdReqs::0               28081                       # Track reads on a per bank basis
system.mem_ctrls.perBankRdReqs::1               27704                       # Track reads on a per bank basis
system.mem_ctrls.perBankRdReqs::2               27746                       # Track reads on a per bank basis
system.mem_ctrls.perBankRdReqs::3               28090                       # Track reads on a per bank basis
system.mem_ctrls.perBankRdReqs::4               27830                       # Track reads on a per bank basis
system.mem_ctrls.perBankRdReqs::5               27853                       # Track reads on a per bank basis
system.mem_ctrls.perBankRdReqs::6               27722                       # Track reads on a per bank basis
system.mem_ctrls.perBankRdReqs::7               27393                       # Track reads on a per bank basis
system.mem_ctrls.perBankRdReqs::8               28175                       # Track reads on a per bank basis
system.mem_ctrls.perBankRdReqs::9               27708                       # Track reads on a per bank basis
system.mem_ctrls.perBankRdReqs::10              27658                       # Track reads on a per bank basis
system.mem_ctrls.perBankRdReqs::11              27763                       # Track reads on a per bank basis
system.mem_ctrls.perBankRdReqs::12              28200                       # Track reads on a per bank basis
system.mem_ctrls.perBankRdReqs::13              27714                       # Track reads on a per bank basis
system.mem_ctrls.perBankRdReqs::14              27815                       # Track reads on a per bank basis
system.mem_ctrls.perBankRdReqs::15              27907                       # Track reads on a per bank basis
system.mem_ctrls.perBankWrReqs::0               22304                       # Track writes on a per bank basis
system.mem_ctrls.perBankWrReqs::1               22090                       # Track writes on a per bank basis
system.mem_ctrls.perBankWrReqs::2               22011                       # Track writes on a per bank basis
system.mem_ctrls.perBankWrReqs::3               22221                       # Track writes on a per bank basis
system.mem_ctrls.perBankWrReqs::4               22093                       # Track writes on a per bank basis
system.mem_ctrls.perBankWrReqs::5               22182                       # Track writes on a per bank basis
system.mem_ctrls.perBankWrReqs::6               22083                       # Track writes on a per bank basis
system.mem_ctrls.perBankWrReqs::7               21814                       # Track writes on a per bank basis
system.mem_ctrls.perBankWrReqs::8               22335                       # Track writes on a per bank basis
system.mem_ctrls.perBankWrReqs::9               22027                       # Track writes on a per bank basis
system.mem_ctrls.perBankWrReqs::10              21999                       # Track writes on a per bank basis
system.mem_ctrls.perBankWrReqs::11              22136                       # Track writes on a per bank basis
system.mem_ctrls.perBankWrReqs::12              22383                       # Track writes on a per bank basis
system.mem_ctrls.perBankWrReqs::13              22141                       # Track writes on a per bank basis
system.mem_ctrls.perBankWrReqs::14              22012                       # Track writes on a per bank basis
system.mem_ctrls.perBankWrReqs::15              22249                       # Track writes on a per bank basis
system.mem_ctrls.numRdRetry                         0                       # Number of times rd buffer was full causing retry
system.mem_ctrls.numWrRetry                         0                       # Number of times wr buffer was full causing retry
system.mem_ctrls.totGap                  568767536460                       # Total gap between requests
system.mem_ctrls.readPktSize::0                     0                       # Categorize read packet sizes
system.mem_ctrls.readPktSize::1                     0                       # Categorize read packet sizes
system.mem_ctrls.readPktSize::2                     0                       # Categorize read packet sizes
system.mem_ctrls.readPktSize::3                     0                       # Categorize read packet sizes
system.mem_ctrls.readPktSize::4                     0                       # Categorize read packet sizes
system.mem_ctrls.readPktSize::5                     0                       # Categorize read packet sizes
system.mem_ctrls.readPktSize::6                445371                       # Categorize read packet sizes
system.mem_ctrls.writePktSize::0                    0                       # Categorize write packet sizes
system.mem_ctrls.writePktSize::1                    0                       # Categorize write packet sizes
system.mem_ctrls.writePktSize::2                    0                       # Categorize write packet sizes
system.mem_ctrls.writePktSize::3                    0                       # Categorize write packet sizes
system.mem_ctrls.writePktSize::4                    0                       # Categorize write packet sizes
system.mem_ctrls.writePktSize::5                    0                       # Categorize write packet sizes
system.mem_ctrls.writePktSize::6               354080                       # Categorize write packet sizes
system.mem_ctrls.rdQLenPdf::0                  440837                       # What read queue length does an incoming req see
system.mem_ctrls.rdQLenPdf::1                    4334                       # What read queue length does an incoming req see
system.mem_ctrls.rdQLenPdf::2                     145                       # What read queue length does an incoming req see
system.mem_ctrls.rdQLenPdf::3                      41                       # What read queue length does an incoming req see
system.mem_ctrls.rdQLenPdf::4                       1                       # What read queue length does an incoming req see
system.mem_ctrls.rdQLenPdf::5                       1                       # What read queue length does an incoming req see
system.mem_ctrls.rdQLenPdf::6                       0                       # What read queue length does an incoming req see
system.mem_ctrls.rdQLenPdf::7                       0                       # What read queue length does an incoming req see
system.mem_ctrls.rdQLenPdf::8                       0                       # What read queue length does an incoming req see
system.mem_ctrls.rdQLenPdf::9                       0                       # What read queue length does an incoming req see
system.mem_ctrls.rdQLenPdf::10                      0                       # What read queue length does an incoming req see
system.mem_ctrls.rdQLenPdf::11                      0                       # What read queue length does an incoming req see
system.mem_ctrls.rdQLenPdf::12                      0                       # What read queue length does an incoming req see
system.mem_ctrls.rdQLenPdf::13                      0                       # What read queue length does an incoming req see
system.mem_ctrls.rdQLenPdf::14                      0                       # What read queue length does an incoming req see
system.mem_ctrls.rdQLenPdf::15                      0                       # What read queue length does an incoming req see
system.mem_ctrls.rdQLenPdf::16                      0                       # What read queue length does an incoming req see
system.mem_ctrls.rdQLenPdf::17                      0                       # What read queue length does an incoming req see
system.mem_ctrls.rdQLenPdf::18                      0                       # What read queue length does an incoming req see
system.mem_ctrls.rdQLenPdf::19                      0                       # What read queue length does an incoming req see
system.mem_ctrls.rdQLenPdf::20                      0                       # What read queue length does an incoming req see
system.mem_ctrls.rdQLenPdf::21                      0                       # What read queue length does an incoming req see
system.mem_ctrls.rdQLenPdf::22                      0                       # What read queue length does an incoming req see
system.mem_ctrls.rdQLenPdf::23                      0                       # What read queue length does an incoming req see
system.mem_ctrls.rdQLenPdf::24                      0                       # What read queue length does an incoming req see
system.mem_ctrls.rdQLenPdf::25                      0                       # What read queue length does an incoming req see
system.mem_ctrls.rdQLenPdf::26                      0                       # What read queue length does an incoming req see
system.mem_ctrls.rdQLenPdf::27                      0                       # What read queue length does an incoming req see
system.mem_ctrls.rdQLenPdf::28                      0                       # What read queue length does an incoming req see
system.mem_ctrls.rdQLenPdf::29                      0                       # What read queue length does an incoming req see
system.mem_ctrls.rdQLenPdf::30                      0                       # What read queue length does an incoming req see
system.mem_ctrls.rdQLenPdf::31                      0                       # What read queue length does an incoming req see
system.mem_ctrls.wrQLenPdf::0                   15268                       # What write queue length does an incoming req see
system.mem_ctrls.wrQLenPdf::1                   15395                       # What write queue length does an incoming req see
system.mem_ctrls.wrQLenPdf::2                   15395                       # What write queue length does an incoming req see
system.mem_ctrls.wrQLenPdf::3                   15395                       # What write queue length does an incoming req see
system.mem_ctrls.wrQLenPdf::4                   15395                       # What write queue length does an incoming req see
system.mem_ctrls.wrQLenPdf::5                   15395                       # What write queue length does an incoming req see
system.mem_ctrls.wrQLenPdf::6                   15395                       # What write queue length does an incoming req see
system.mem_ctrls.wrQLenPdf::7                   15395                       # What write queue length does an incoming req see
system.mem_ctrls.wrQLenPdf::8                   15395                       # What write queue length does an incoming req see
system.mem_ctrls.wrQLenPdf::9                   15395                       # What write queue length does an incoming req see
system.mem_ctrls.wrQLenPdf::10                  15395                       # What write queue length does an incoming req see
system.mem_ctrls.wrQLenPdf::11                  15395                       # What write queue length does an incoming req see
system.mem_ctrls.wrQLenPdf::12                  15395                       # What write queue length does an incoming req see
system.mem_ctrls.wrQLenPdf::13                  15395                       # What write queue length does an incoming req see
system.mem_ctrls.wrQLenPdf::14                  15395                       # What write queue length does an incoming req see
system.mem_ctrls.wrQLenPdf::15                  15395                       # What write queue length does an incoming req see
system.mem_ctrls.wrQLenPdf::16                  15395                       # What write queue length does an incoming req see
system.mem_ctrls.wrQLenPdf::17                  15395                       # What write queue length does an incoming req see
system.mem_ctrls.wrQLenPdf::18                  15394                       # What write queue length does an incoming req see
system.mem_ctrls.wrQLenPdf::19                  15394                       # What write queue length does an incoming req see
system.mem_ctrls.wrQLenPdf::20                  15394                       # What write queue length does an incoming req see
system.mem_ctrls.wrQLenPdf::21                  15394                       # What write queue length does an incoming req see
system.mem_ctrls.wrQLenPdf::22                  15394                       # What write queue length does an incoming req see
system.mem_ctrls.wrQLenPdf::23                    127                       # What write queue length does an incoming req see
system.mem_ctrls.wrQLenPdf::24                      0                       # What write queue length does an incoming req see
system.mem_ctrls.wrQLenPdf::25                      0                       # What write queue length does an incoming req see
system.mem_ctrls.wrQLenPdf::26                      0                       # What write queue length does an incoming req see
system.mem_ctrls.wrQLenPdf::27                      0                       # What write queue length does an incoming req see
system.mem_ctrls.wrQLenPdf::28                      0                       # What write queue length does an incoming req see
system.mem_ctrls.wrQLenPdf::29                      0                       # What write queue length does an incoming req see
system.mem_ctrls.wrQLenPdf::30                      0                       # What write queue length does an incoming req see
system.mem_ctrls.wrQLenPdf::31                      0                       # What write queue length does an incoming req see
system.mem_ctrls.bytesPerActivate::samples       775020                       # Bytes accessed per row activation
system.mem_ctrls.bytesPerActivate::mean     66.014998                       # Bytes accessed per row activation
system.mem_ctrls.bytesPerActivate::gmean    65.376113                       # Bytes accessed per row activation
system.mem_ctrls.bytesPerActivate::stdev    12.792977                       # Bytes accessed per row activation
system.mem_ctrls.bytesPerActivate::64          751651     96.98%     96.98% # Bytes accessed per row activation
system.mem_ctrls.bytesPerActivate::128          22937      2.96%     99.94% # Bytes accessed per row activation
system.mem_ctrls.bytesPerActivate::192            254      0.03%     99.98% # Bytes accessed per row activation
system.mem_ctrls.bytesPerActivate::256             68      0.01%     99.99% # Bytes accessed per row activation
system.mem_ctrls.bytesPerActivate::320             41      0.01%     99.99% # Bytes accessed per row activation
system.mem_ctrls.bytesPerActivate::384             19      0.00%     99.99% # Bytes accessed per row activation
system.mem_ctrls.bytesPerActivate::448             12      0.00%    100.00% # Bytes accessed per row activation
system.mem_ctrls.bytesPerActivate::512              6      0.00%    100.00% # Bytes accessed per row activation
system.mem_ctrls.bytesPerActivate::576              7      0.00%    100.00% # Bytes accessed per row activation
system.mem_ctrls.bytesPerActivate::640              9      0.00%    100.00% # Bytes accessed per row activation
system.mem_ctrls.bytesPerActivate::704              2      0.00%    100.00% # Bytes accessed per row activation
system.mem_ctrls.bytesPerActivate::768              4      0.00%    100.00% # Bytes accessed per row activation
system.mem_ctrls.bytesPerActivate::832              3      0.00%    100.00% # Bytes accessed per row activation
system.mem_ctrls.bytesPerActivate::896              1      0.00%    100.00% # Bytes accessed per row activation
system.mem_ctrls.bytesPerActivate::1152             1      0.00%    100.00% # Bytes accessed per row activation
system.mem_ctrls.bytesPerActivate::1216             1      0.00%    100.00% # Bytes accessed per row activation
system.mem_ctrls.bytesPerActivate::1280             1      0.00%    100.00% # Bytes accessed per row activation
system.mem_ctrls.bytesPerActivate::1600             1      0.00%    100.00% # Bytes accessed per row activation
system.mem_ctrls.bytesPerActivate::1664             1      0.00%    100.00% # Bytes accessed per row activation
system.mem_ctrls.bytesPerActivate::1728             1      0.00%    100.00% # Bytes accessed per row activation
system.mem_ctrls.bytesPerActivate::total       775020                       # Bytes accessed per row activation
system.mem_ctrls.totQLat                   6113904470                       # Total cycles spent in queuing delays
system.mem_ctrls.totMemAccLat             25998463220                       # Sum of mem lat for all requests
system.mem_ctrls.totBusLat                 2226795000                       # Total cycles spent in databus access
system.mem_ctrls.totBankLat               17657763750                       # Total cycles spent in bank access
system.mem_ctrls.avgQLat                     13728.04                       # Average queueing delay per request
system.mem_ctrls.avgBankLat                  39648.38                       # Average bank access latency per request
system.mem_ctrls.avgBusLat                    5000.00                       # Average bus latency per request
system.mem_ctrls.avgMemAccLat                58376.42                       # Average memory access latency
system.mem_ctrls.avgRdBW                        50.11                       # Average achieved read bandwidth in MB/s
system.mem_ctrls.avgWrBW                        39.84                       # Average achieved write bandwidth in MB/s
system.mem_ctrls.avgConsumedRdBW                50.11                       # Average consumed read bandwidth in MB/s
system.mem_ctrls.avgConsumedWrBW                39.84                       # Average consumed write bandwidth in MB/s
system.mem_ctrls.peakBW                      12800.00                       # Theoretical peak bandwidth in MB/s
system.mem_ctrls.busUtil                         0.70                       # Data bus utilization in percentage
system.mem_ctrls.avgRdQLen                       0.05                       # Average read queue length over time
system.mem_ctrls.avgWrQLen                      10.91                       # Average write queue length over time
system.mem_ctrls.readRowHits                    23448                       # Number of row buffer hits during reads
system.mem_ctrls.writeRowHits                     953                       # Number of row buffer hits during writes
system.mem_ctrls.readRowHitRate                  5.26                       # Row buffer hit rate for reads
system.mem_ctrls.writeRowHitRate                 0.27                       # Row buffer hit rate for writes
system.mem_ctrls.avgGap                     711447.65                       # Average gap between requests
system.membus.throughput                     89957135                       # Throughput (bytes/s)
system.membus.trans_dist::ReadReq              416997                       # Transaction distribution
system.membus.trans_dist::ReadResp             416997                       # Transaction distribution
system.membus.trans_dist::Writeback            354080                       # Transaction distribution
system.membus.trans_dist::ReadExReq             28374                       # Transaction distribution
system.membus.trans_dist::ReadExResp            28374                       # Transaction distribution
system.membus.pkt_count_system.l2.mem_side::system.mem_ctrls.port      1244822                       # Packet count per connected master and slave (bytes)
system.membus.pkt_count::total                1244822                       # Packet count per connected master and slave (bytes)
system.membus.tot_pkt_size_system.l2.mem_side::system.mem_ctrls.port     51164864                       # Cumulative packet size per connected master and slave (bytes)
system.membus.tot_pkt_size::total            51164864                       # Cumulative packet size per connected master and slave (bytes)
system.membus.data_through_bus               51164864                       # Total data (bytes)
system.membus.snoop_data_through_bus                0                       # Total snoop data (bytes)
system.membus.reqLayer0.occupancy          1209486303                       # Layer occupancy (ticks)
system.membus.reqLayer0.utilization               0.2                       # Layer utilization (%)
system.membus.respLayer1.occupancy         1349121271                       # Layer occupancy (ticks)
system.membus.respLayer1.utilization              0.2                       # Layer utilization (%)
system.switch_cpus.branchPred.lookups       538345635                       # Number of BP lookups
system.switch_cpus.branchPred.condPredicted    448706127                       # Number of conditional branches predicted
system.switch_cpus.branchPred.condIncorrect     35406341                       # Number of conditional branches incorrect
system.switch_cpus.branchPred.BTBLookups    277299222                       # Number of BTB lookups
system.switch_cpus.branchPred.BTBHits       261107974                       # Number of BTB hits
system.switch_cpus.branchPred.BTBCorrect            0                       # Number of correct BTB predictions (this stat may not work properly.
system.switch_cpus.branchPred.BTBHitPct     94.161091                       # BTB Hit Percentage
system.switch_cpus.branchPred.usedRAS        25266132                       # Number of times the RAS was used to get a target.
system.switch_cpus.branchPred.RASInCorrect       331913                       # Number of incorrect RAS predictions.
system.switch_cpus.dtb.fetch_hits                   0                       # ITB hits
system.switch_cpus.dtb.fetch_misses                 0                       # ITB misses
system.switch_cpus.dtb.fetch_acv                    0                       # ITB acv
system.switch_cpus.dtb.fetch_accesses               0                       # ITB accesses
system.switch_cpus.dtb.read_hits            590258987                       # DTB read hits
system.switch_cpus.dtb.read_misses            2428853                       # DTB read misses
system.switch_cpus.dtb.read_acv                     0                       # DTB read access violations
system.switch_cpus.dtb.read_accesses        592687840                       # DTB read accesses
system.switch_cpus.dtb.write_hits           177269246                       # DTB write hits
system.switch_cpus.dtb.write_misses           1936751                       # DTB write misses
system.switch_cpus.dtb.write_acv                    0                       # DTB write access violations
system.switch_cpus.dtb.write_accesses       179205997                       # DTB write accesses
system.switch_cpus.dtb.data_hits            767528233                       # DTB hits
system.switch_cpus.dtb.data_misses            4365604                       # DTB misses
system.switch_cpus.dtb.data_acv                     0                       # DTB access violations
system.switch_cpus.dtb.data_accesses        771893837                       # DTB accesses
system.switch_cpus.itb.fetch_hits           437426639                       # ITB hits
system.switch_cpus.itb.fetch_misses               265                       # ITB misses
system.switch_cpus.itb.fetch_acv                    0                       # ITB acv
system.switch_cpus.itb.fetch_accesses       437426904                       # ITB accesses
system.switch_cpus.itb.read_hits                    0                       # DTB read hits
system.switch_cpus.itb.read_misses                  0                       # DTB read misses
system.switch_cpus.itb.read_acv                     0                       # DTB read access violations
system.switch_cpus.itb.read_accesses                0                       # DTB read accesses
system.switch_cpus.itb.write_hits                   0                       # DTB write hits
system.switch_cpus.itb.write_misses                 0                       # DTB write misses
system.switch_cpus.itb.write_acv                    0                       # DTB write access violations
system.switch_cpus.itb.write_accesses               0                       # DTB write accesses
system.switch_cpus.itb.data_hits                    0                       # DTB hits
system.switch_cpus.itb.data_misses                  0                       # DTB misses
system.switch_cpus.itb.data_acv                     0                       # DTB access violations
system.switch_cpus.itb.data_accesses                0                       # DTB accesses
system.cpu.workload.num_syscalls                   15                       # Number of system calls
system.switch_cpus.numCycles               1708016154                       # number of cpu cycles simulated
system.switch_cpus.numWorkItemsStarted              0                       # number of work items this cpu started
system.switch_cpus.numWorkItemsCompleted            0                       # number of work items this cpu completed
system.switch_cpus.fetch.icacheStallCycles    878936537                       # Number of cycles fetch is stalled on an Icache miss
system.switch_cpus.fetch.Insts             3005470917                       # Number of instructions fetch has processed
system.switch_cpus.fetch.Branches           538345635                       # Number of branches that fetch encountered
system.switch_cpus.fetch.predictedBranches    286374106                       # Number of branches that fetch has predicted taken
system.switch_cpus.fetch.Cycles             569187727                       # Number of cycles fetch has run and was not squashing or blocked
system.switch_cpus.fetch.SquashCycles       137069856                       # Number of cycles fetch has spent squashing
system.switch_cpus.fetch.BlockedCycles      111357869                       # Number of cycles fetch has spent blocked
system.switch_cpus.fetch.MiscStallCycles           55                       # Number of cycles fetch has spent waiting on interrupts, or bad addresses, or out of MSHRs
system.switch_cpus.fetch.PendingTrapStallCycles         3130                       # Number of stall cycles due to pending traps
system.switch_cpus.fetch.IcacheWaitRetryStallCycles           20                       # Number of stall cycles due to full MSHR
system.switch_cpus.fetch.CacheLines         437426639                       # Number of cache lines fetched
system.switch_cpus.fetch.IcacheSquashes      19905203                       # Number of outstanding Icache misses that were squashed
system.switch_cpus.fetch.rateDist::samples   1659643783                       # Number of instructions fetched each cycle (Total)
system.switch_cpus.fetch.rateDist::mean      1.810913                       # Number of instructions fetched each cycle (Total)
system.switch_cpus.fetch.rateDist::stdev     2.902298                       # Number of instructions fetched each cycle (Total)
system.switch_cpus.fetch.rateDist::underflows            0      0.00%      0.00% # Number of instructions fetched each cycle (Total)
system.switch_cpus.fetch.rateDist::0       1090456056     65.70%     65.70% # Number of instructions fetched each cycle (Total)
system.switch_cpus.fetch.rateDist::1         51159152      3.08%     68.79% # Number of instructions fetched each cycle (Total)
system.switch_cpus.fetch.rateDist::2         52502776      3.16%     71.95% # Number of instructions fetched each cycle (Total)
system.switch_cpus.fetch.rateDist::3         33486591      2.02%     73.97% # Number of instructions fetched each cycle (Total)
system.switch_cpus.fetch.rateDist::4        130789193      7.88%     81.85% # Number of instructions fetched each cycle (Total)
system.switch_cpus.fetch.rateDist::5         30610912      1.84%     83.69% # Number of instructions fetched each cycle (Total)
system.switch_cpus.fetch.rateDist::6         34096013      2.05%     85.75% # Number of instructions fetched each cycle (Total)
system.switch_cpus.fetch.rateDist::7         24285690      1.46%     87.21% # Number of instructions fetched each cycle (Total)
system.switch_cpus.fetch.rateDist::8        212257400     12.79%    100.00% # Number of instructions fetched each cycle (Total)
system.switch_cpus.fetch.rateDist::overflows            0      0.00%    100.00% # Number of instructions fetched each cycle (Total)
system.switch_cpus.fetch.rateDist::min_value            0                       # Number of instructions fetched each cycle (Total)
system.switch_cpus.fetch.rateDist::max_value            8                       # Number of instructions fetched each cycle (Total)
system.switch_cpus.fetch.rateDist::total   1659643783                       # Number of instructions fetched each cycle (Total)
system.switch_cpus.fetch.branchRate          0.315188                       # Number of branch fetches per cycle
system.switch_cpus.fetch.rate                1.759627                       # Number of inst fetches per cycle
system.switch_cpus.decode.IdleCycles        896763242                       # Number of cycles decode is idle
system.switch_cpus.decode.BlockedCycles     107833795                       # Number of cycles decode is blocked
system.switch_cpus.decode.RunCycles         554009970                       # Number of cycles decode is running
system.switch_cpus.decode.UnblockCycles       2024338                       # Number of cycles decode is unblocking
system.switch_cpus.decode.SquashCycles       99012437                       # Number of cycles decode is squashing
system.switch_cpus.decode.BranchResolved     51176097                       # Number of times decode resolved a branch
system.switch_cpus.decode.BranchMispred       1178706                       # Number of times decode detected a branch misprediction
system.switch_cpus.decode.DecodedInsts     2928150102                       # Number of instructions handled by decode
system.switch_cpus.decode.SquashedInsts       2465510                       # Number of squashed instructions handled by decode
system.switch_cpus.rename.SquashCycles       99012437                       # Number of cycles rename is squashing
system.switch_cpus.rename.IdleCycles        914528679                       # Number of cycles rename is idle
system.switch_cpus.rename.BlockCycles        18596390                       # Number of cycles rename is blocking
system.switch_cpus.rename.serializeStallCycles     76375269                       # count of cycles rename stalled for serializing inst
system.switch_cpus.rename.RunCycles         538128615                       # Number of cycles rename is running
system.switch_cpus.rename.UnblockCycles      13002392                       # Number of cycles rename is unblocking
system.switch_cpus.rename.RenamedInsts     2847359002                       # Number of instructions processed by rename
system.switch_cpus.rename.ROBFullEvents         46931                       # Number of times rename has blocked due to ROB full
system.switch_cpus.rename.IQFullEvents          11171                       # Number of times rename has blocked due to IQ full
system.switch_cpus.rename.LSQFullEvents       8248217                       # Number of times rename has blocked due to LSQ full
system.switch_cpus.rename.RenamedOperands   2117612145                       # Number of destination operands rename has renamed
system.switch_cpus.rename.RenameLookups    3662585603                       # Number of register rename lookups that rename has made
system.switch_cpus.rename.int_rename_lookups   3645554146                       # Number of integer rename lookups
system.switch_cpus.rename.fp_rename_lookups     17031457                       # Number of floating rename lookups
system.switch_cpus.rename.CommittedMaps    1500908499                       # Number of HB maps that are committed
system.switch_cpus.rename.UndoneMaps        616703618                       # Number of HB maps that are undone due to squashing
system.switch_cpus.rename.serializingInsts      3665684                       # count of serializing insts renamed
system.switch_cpus.rename.tempSerializingInsts          174                       # count of temporary serializing insts renamed
system.switch_cpus.rename.skidInsts          40632688                       # count of insts added to the skid buffer
system.switch_cpus.memDep0.insertedLoads    653422309                       # Number of loads inserted to the mem dependence unit.
system.switch_cpus.memDep0.insertedStores    192887067                       # Number of stores inserted to the mem dependence unit.
system.switch_cpus.memDep0.conflictingLoads      9718458                       # Number of conflicting loads.
system.switch_cpus.memDep0.conflictingStores      1016313                       # Number of conflicting stores.
system.switch_cpus.iq.iqInstsAdded         2665519727                       # Number of instructions added to the IQ (excludes non-spec)
system.switch_cpus.iq.iqNonSpecInstsAdded          223                       # Number of non-speculative instructions added to the IQ
system.switch_cpus.iq.iqInstsIssued        2415150265                       # Number of instructions issued
system.switch_cpus.iq.iqSquashedInstsIssued      5158367                       # Number of squashed instructions issued
system.switch_cpus.iq.iqSquashedInstsExamined    646897360                       # Number of squashed instructions iterated over during squash; mainly for profiling
system.switch_cpus.iq.iqSquashedOperandsExamined    412311282                       # Number of squashed operands that are examined and possibly removed from graph
system.switch_cpus.iq.iqSquashedNonSpecRemoved          148                       # Number of squashed non-spec instructions that were removed
system.switch_cpus.iq.issued_per_cycle::samples   1659643783                       # Number of insts issued each cycle
system.switch_cpus.iq.issued_per_cycle::mean     1.455222                       # Number of insts issued each cycle
system.switch_cpus.iq.issued_per_cycle::stdev     1.658270                       # Number of insts issued each cycle
system.switch_cpus.iq.issued_per_cycle::underflows            0      0.00%      0.00% # Number of insts issued each cycle
system.switch_cpus.iq.issued_per_cycle::0    683713226     41.20%     41.20% # Number of insts issued each cycle
system.switch_cpus.iq.issued_per_cycle::1    298820399     18.01%     59.20% # Number of insts issued each cycle
system.switch_cpus.iq.issued_per_cycle::2    304022862     18.32%     77.52% # Number of insts issued each cycle
system.switch_cpus.iq.issued_per_cycle::3    149285167      9.00%     86.52% # Number of insts issued each cycle
system.switch_cpus.iq.issued_per_cycle::4    120161076      7.24%     93.76% # Number of insts issued each cycle
system.switch_cpus.iq.issued_per_cycle::5     55406242      3.34%     97.09% # Number of insts issued each cycle
system.switch_cpus.iq.issued_per_cycle::6     36004288      2.17%     99.26% # Number of insts issued each cycle
system.switch_cpus.iq.issued_per_cycle::7     11116785      0.67%     99.93% # Number of insts issued each cycle
system.switch_cpus.iq.issued_per_cycle::8      1113738      0.07%    100.00% # Number of insts issued each cycle
system.switch_cpus.iq.issued_per_cycle::overflows            0      0.00%    100.00% # Number of insts issued each cycle
system.switch_cpus.iq.issued_per_cycle::min_value            0                       # Number of insts issued each cycle
system.switch_cpus.iq.issued_per_cycle::max_value            8                       # Number of insts issued each cycle
system.switch_cpus.iq.issued_per_cycle::total   1659643783                       # Number of insts issued each cycle
system.switch_cpus.iq.fu_full::No_OpClass            0      0.00%      0.00% # attempts to use FU when none available
system.switch_cpus.iq.fu_full::IntAlu         8000566     20.99%     20.99% # attempts to use FU when none available
system.switch_cpus.iq.fu_full::IntMult              0      0.00%     20.99% # attempts to use FU when none available
system.switch_cpus.iq.fu_full::IntDiv               0      0.00%     20.99% # attempts to use FU when none available
system.switch_cpus.iq.fu_full::FloatAdd             0      0.00%     20.99% # attempts to use FU when none available
system.switch_cpus.iq.fu_full::FloatCmp             0      0.00%     20.99% # attempts to use FU when none available
system.switch_cpus.iq.fu_full::FloatCvt             0      0.00%     20.99% # attempts to use FU when none available
system.switch_cpus.iq.fu_full::FloatMult            0      0.00%     20.99% # attempts to use FU when none available
system.switch_cpus.iq.fu_full::FloatDiv             0      0.00%     20.99% # attempts to use FU when none available
system.switch_cpus.iq.fu_full::FloatSqrt            0      0.00%     20.99% # attempts to use FU when none available
system.switch_cpus.iq.fu_full::SimdAdd              0      0.00%     20.99% # attempts to use FU when none available
system.switch_cpus.iq.fu_full::SimdAddAcc            0      0.00%     20.99% # attempts to use FU when none available
system.switch_cpus.iq.fu_full::SimdAlu              0      0.00%     20.99% # attempts to use FU when none available
system.switch_cpus.iq.fu_full::SimdCmp              0      0.00%     20.99% # attempts to use FU when none available
system.switch_cpus.iq.fu_full::SimdCvt              0      0.00%     20.99% # attempts to use FU when none available
system.switch_cpus.iq.fu_full::SimdMisc             0      0.00%     20.99% # attempts to use FU when none available
system.switch_cpus.iq.fu_full::SimdMult             0      0.00%     20.99% # attempts to use FU when none available
system.switch_cpus.iq.fu_full::SimdMultAcc            0      0.00%     20.99% # attempts to use FU when none available
system.switch_cpus.iq.fu_full::SimdShift            0      0.00%     20.99% # attempts to use FU when none available
system.switch_cpus.iq.fu_full::SimdShiftAcc            0      0.00%     20.99% # attempts to use FU when none available
system.switch_cpus.iq.fu_full::SimdSqrt             0      0.00%     20.99% # attempts to use FU when none available
system.switch_cpus.iq.fu_full::SimdFloatAdd            0      0.00%     20.99% # attempts to use FU when none available
system.switch_cpus.iq.fu_full::SimdFloatAlu            0      0.00%     20.99% # attempts to use FU when none available
system.switch_cpus.iq.fu_full::SimdFloatCmp            0      0.00%     20.99% # attempts to use FU when none available
system.switch_cpus.iq.fu_full::SimdFloatCvt            0      0.00%     20.99% # attempts to use FU when none available
system.switch_cpus.iq.fu_full::SimdFloatDiv            0      0.00%     20.99% # attempts to use FU when none available
system.switch_cpus.iq.fu_full::SimdFloatMisc            0      0.00%     20.99% # attempts to use FU when none available
system.switch_cpus.iq.fu_full::SimdFloatMult            0      0.00%     20.99% # attempts to use FU when none available
system.switch_cpus.iq.fu_full::SimdFloatMultAcc            0      0.00%     20.99% # attempts to use FU when none available
system.switch_cpus.iq.fu_full::SimdFloatSqrt            0      0.00%     20.99% # attempts to use FU when none available
system.switch_cpus.iq.fu_full::MemRead       19004883     49.85%     70.84% # attempts to use FU when none available
system.switch_cpus.iq.fu_full::MemWrite      11118424     29.16%    100.00% # attempts to use FU when none available
system.switch_cpus.iq.fu_full::IprAccess            0      0.00%    100.00% # attempts to use FU when none available
system.switch_cpus.iq.fu_full::InstPrefetch            0      0.00%    100.00% # attempts to use FU when none available
system.switch_cpus.iq.FU_type_0::No_OpClass      1763554      0.07%      0.07% # Type of FU issued
system.switch_cpus.iq.FU_type_0::IntAlu    1609017163     66.62%     66.69% # Type of FU issued
system.switch_cpus.iq.FU_type_0::IntMult      1047909      0.04%     66.74% # Type of FU issued
system.switch_cpus.iq.FU_type_0::IntDiv             0      0.00%     66.74% # Type of FU issued
system.switch_cpus.iq.FU_type_0::FloatAdd      4408876      0.18%     66.92% # Type of FU issued
system.switch_cpus.iq.FU_type_0::FloatCmp            1      0.00%     66.92% # Type of FU issued
system.switch_cpus.iq.FU_type_0::FloatCvt      2645347      0.11%     67.03% # Type of FU issued
system.switch_cpus.iq.FU_type_0::FloatMult            1      0.00%     67.03% # Type of FU issued
system.switch_cpus.iq.FU_type_0::FloatDiv       881769      0.04%     67.07% # Type of FU issued
system.switch_cpus.iq.FU_type_0::FloatSqrt            0      0.00%     67.07% # Type of FU issued
system.switch_cpus.iq.FU_type_0::SimdAdd            0      0.00%     67.07% # Type of FU issued
system.switch_cpus.iq.FU_type_0::SimdAddAcc            0      0.00%     67.07% # Type of FU issued
system.switch_cpus.iq.FU_type_0::SimdAlu            0      0.00%     67.07% # Type of FU issued
system.switch_cpus.iq.FU_type_0::SimdCmp            0      0.00%     67.07% # Type of FU issued
system.switch_cpus.iq.FU_type_0::SimdCvt            0      0.00%     67.07% # Type of FU issued
system.switch_cpus.iq.FU_type_0::SimdMisc            0      0.00%     67.07% # Type of FU issued
system.switch_cpus.iq.FU_type_0::SimdMult            0      0.00%     67.07% # Type of FU issued
system.switch_cpus.iq.FU_type_0::SimdMultAcc            0      0.00%     67.07% # Type of FU issued
system.switch_cpus.iq.FU_type_0::SimdShift            0      0.00%     67.07% # Type of FU issued
system.switch_cpus.iq.FU_type_0::SimdShiftAcc            0      0.00%     67.07% # Type of FU issued
system.switch_cpus.iq.FU_type_0::SimdSqrt            0      0.00%     67.07% # Type of FU issued
system.switch_cpus.iq.FU_type_0::SimdFloatAdd            0      0.00%     67.07% # Type of FU issued
system.switch_cpus.iq.FU_type_0::SimdFloatAlu            0      0.00%     67.07% # Type of FU issued
system.switch_cpus.iq.FU_type_0::SimdFloatCmp            0      0.00%     67.07% # Type of FU issued
system.switch_cpus.iq.FU_type_0::SimdFloatCvt            0      0.00%     67.07% # Type of FU issued
system.switch_cpus.iq.FU_type_0::SimdFloatDiv            0      0.00%     67.07% # Type of FU issued
system.switch_cpus.iq.FU_type_0::SimdFloatMisc            0      0.00%     67.07% # Type of FU issued
system.switch_cpus.iq.FU_type_0::SimdFloatMult            0      0.00%     67.07% # Type of FU issued
system.switch_cpus.iq.FU_type_0::SimdFloatMultAcc            0      0.00%     67.07% # Type of FU issued
system.switch_cpus.iq.FU_type_0::SimdFloatSqrt            0      0.00%     67.07% # Type of FU issued
system.switch_cpus.iq.FU_type_0::MemRead    612738852     25.37%     92.44% # Type of FU issued
system.switch_cpus.iq.FU_type_0::MemWrite    182646793      7.56%    100.00% # Type of FU issued
system.switch_cpus.iq.FU_type_0::IprAccess            0      0.00%    100.00% # Type of FU issued
system.switch_cpus.iq.FU_type_0::InstPrefetch            0      0.00%    100.00% # Type of FU issued
system.switch_cpus.iq.FU_type_0::total     2415150265                       # Type of FU issued
system.switch_cpus.iq.rate                   1.414009                       # Inst issue rate
system.switch_cpus.iq.fu_busy_cnt            38123873                       # FU busy when requested
system.switch_cpus.iq.fu_busy_rate           0.015785                       # FU busy rate (busy events/executed inst)
system.switch_cpus.iq.int_inst_queue_reads   6506237685                       # Number of integer instruction queue reads
system.switch_cpus.iq.int_inst_queue_writes   3298989584                       # Number of integer instruction queue writes
system.switch_cpus.iq.int_inst_queue_wakeup_accesses   2308386617                       # Number of integer instruction queue wakeup accesses
system.switch_cpus.iq.fp_inst_queue_reads     26988865                       # Number of floating instruction queue reads
system.switch_cpus.iq.fp_inst_queue_writes     13477247                       # Number of floating instruction queue writes
system.switch_cpus.iq.fp_inst_queue_wakeup_accesses     13285016                       # Number of floating instruction queue wakeup accesses
system.switch_cpus.iq.int_alu_accesses     2437864785                       # Number of integer alu accesses
system.switch_cpus.iq.fp_alu_accesses        13645799                       # Number of floating point alu accesses
system.switch_cpus.iew.lsq.thread0.forwLoads      9610238                       # Number of loads that had data forwarded from stores
system.switch_cpus.iew.lsq.thread0.invAddrLoads            0                       # Number of loads ignored due to an invalid address
system.switch_cpus.iew.lsq.thread0.squashedLoads    165440837                       # Number of loads squashed
system.switch_cpus.iew.lsq.thread0.ignoredResponses       120634                       # Number of memory responses ignored because the instruction is squashed
system.switch_cpus.iew.lsq.thread0.memOrderViolation        70874                       # Number of memory ordering violations
system.switch_cpus.iew.lsq.thread0.squashedStores     34615367                       # Number of stores squashed
system.switch_cpus.iew.lsq.thread0.invAddrSwpfs            0                       # Number of software prefetches ignored due to an invalid address
system.switch_cpus.iew.lsq.thread0.blockedLoads            0                       # Number of blocked loads due to partial load-store forwarding
system.switch_cpus.iew.lsq.thread0.rescheduledLoads          127                       # Number of loads that were rescheduled
system.switch_cpus.iew.lsq.thread0.cacheBlocked          894                       # Number of times an access to memory failed due to the cache being blocked
system.switch_cpus.iew.iewIdleCycles                0                       # Number of cycles IEW is idle
system.switch_cpus.iew.iewSquashCycles       99012437                       # Number of cycles IEW is squashing
system.switch_cpus.iew.iewBlockCycles         9625020                       # Number of cycles IEW is blocking
system.switch_cpus.iew.iewUnblockCycles        285878                       # Number of cycles IEW is unblocking
system.switch_cpus.iew.iewDispatchedInsts   2705231352                       # Number of instructions dispatched to IQ
system.switch_cpus.iew.iewDispSquashedInsts     22284505                       # Number of squashed instructions skipped by dispatch
system.switch_cpus.iew.iewDispLoadInsts     653422309                       # Number of dispatched load instructions
system.switch_cpus.iew.iewDispStoreInsts    192887067                       # Number of dispatched store instructions
system.switch_cpus.iew.iewDispNonSpecInsts          128                       # Number of dispatched non-speculative instructions
system.switch_cpus.iew.iewIQFullEvents          25193                       # Number of times the IQ has become full, causing a stall
system.switch_cpus.iew.iewLSQFullEvents         34398                       # Number of times the LSQ has become full, causing a stall
system.switch_cpus.iew.memOrderViolationEvents        70874                       # Number of memory order violations
system.switch_cpus.iew.predictedTakenIncorrect     22342581                       # Number of branches that were predicted taken incorrectly
system.switch_cpus.iew.predictedNotTakenIncorrect     17068925                       # Number of branches that were predicted not taken incorrectly
system.switch_cpus.iew.branchMispredicts     39411506                       # Number of branch mispredicts detected at execute
system.switch_cpus.iew.iewExecutedInsts    2370288396                       # Number of executed instructions
system.switch_cpus.iew.iewExecLoadInsts     592689076                       # Number of load instructions executed
system.switch_cpus.iew.iewExecSquashedInsts     44861866                       # Number of squashed instructions skipped in execute
system.switch_cpus.iew.exec_swp                     0                       # number of swp insts executed
system.switch_cpus.iew.exec_nop              39711402                       # number of nop insts executed
system.switch_cpus.iew.exec_refs            771897467                       # number of memory reference insts executed
system.switch_cpus.iew.exec_branches        410292111                       # Number of branches executed
system.switch_cpus.iew.exec_stores          179208391                       # Number of stores executed
system.switch_cpus.iew.exec_rate             1.387744                       # Inst execution rate
system.switch_cpus.iew.wb_sent             2334956518                       # cumulative count of insts sent to commit
system.switch_cpus.iew.wb_count            2321671633                       # cumulative count of insts written-back
system.switch_cpus.iew.wb_producers        1418243709                       # num instructions producing a value
system.switch_cpus.iew.wb_consumers        1784313156                       # num instructions consuming a value
system.switch_cpus.iew.wb_penalized                 0                       # number of instrctions required to write to 'other' IQ
system.switch_cpus.iew.wb_rate               1.359280                       # insts written-back per cycle
system.switch_cpus.iew.wb_fanout             0.794840                       # average fanout of values written-back
system.switch_cpus.iew.wb_penalized_rate            0                       # fraction of instructions written-back that wrote to 'other' IQ
system.switch_cpus.commit.commitSquashedInsts    639865552                       # The number of squashed insts skipped by commit
system.switch_cpus.commit.commitNonSpecStalls           75                       # The number of times commit has been forced to stall to communicate backwards
system.switch_cpus.commit.branchMispredicts     34260333                       # The number of times a branch was mispredicted
system.switch_cpus.commit.committed_per_cycle::samples   1560631346                       # Number of insts commited each cycle
system.switch_cpus.commit.committed_per_cycle::mean     1.300837                       # Number of insts commited each cycle
system.switch_cpus.commit.committed_per_cycle::stdev     2.129509                       # Number of insts commited each cycle
system.switch_cpus.commit.committed_per_cycle::underflows            0      0.00%      0.00% # Number of insts commited each cycle
system.switch_cpus.commit.committed_per_cycle::0    852976683     54.66%     54.66% # Number of insts commited each cycle
system.switch_cpus.commit.committed_per_cycle::1    311236448     19.94%     74.60% # Number of insts commited each cycle
system.switch_cpus.commit.committed_per_cycle::2    125796587      8.06%     82.66% # Number of insts commited each cycle
system.switch_cpus.commit.committed_per_cycle::3     54601106      3.50%     86.16% # Number of insts commited each cycle
system.switch_cpus.commit.committed_per_cycle::4     52564671      3.37%     89.53% # Number of insts commited each cycle
system.switch_cpus.commit.committed_per_cycle::5     44652751      2.86%     92.39% # Number of insts commited each cycle
system.switch_cpus.commit.committed_per_cycle::6     29119939      1.87%     94.25% # Number of insts commited each cycle
system.switch_cpus.commit.committed_per_cycle::7     22212969      1.42%     95.68% # Number of insts commited each cycle
system.switch_cpus.commit.committed_per_cycle::8     67470192      4.32%    100.00% # Number of insts commited each cycle
system.switch_cpus.commit.committed_per_cycle::overflows            0      0.00%    100.00% # Number of insts commited each cycle
system.switch_cpus.commit.committed_per_cycle::min_value            0                       # Number of insts commited each cycle
system.switch_cpus.commit.committed_per_cycle::max_value            8                       # Number of insts commited each cycle
system.switch_cpus.commit.committed_per_cycle::total   1560631346                       # Number of insts commited each cycle
system.switch_cpus.commit.committedInsts   2030127332                       # Number of instructions committed
system.switch_cpus.commit.committedOps     2030127332                       # Number of ops (including micro ops) committed
system.switch_cpus.commit.swp_count                 0                       # Number of s/w prefetches committed
system.switch_cpus.commit.refs              646253159                       # Number of memory references committed
system.switch_cpus.commit.loads             487981459                       # Number of loads committed
system.switch_cpus.commit.membars                  30                       # Number of memory barriers committed
system.switch_cpus.commit.branches          355694384                       # Number of branches committed
system.switch_cpus.commit.fp_insts           13226860                       # Number of committed floating point instructions.
system.switch_cpus.commit.int_insts        1972407282                       # Number of committed integer instructions.
system.switch_cpus.commit.function_calls     16638159                       # Number of function calls committed.
system.switch_cpus.commit.bw_lim_events      67470192                       # number cycles where commit BW limit reached
system.switch_cpus.commit.bw_limited                0                       # number of insts not committed due to BW limits
system.switch_cpus.rob.rob_reads           4144130046                       # The number of ROB reads
system.switch_cpus.rob.rob_writes          5439581322                       # The number of ROB writes
system.switch_cpus.timesIdled                  277549                       # Number of times that the entire CPU went into an idle state and unscheduled itself
system.switch_cpus.idleCycles                48372371                       # Total number of cycles that the CPU has spent unscheduled due to idling
system.switch_cpus.committedInsts          2000000000                       # Number of Instructions Simulated
system.switch_cpus.committedOps            2000000000                       # Number of Ops (including micro ops) Simulated
system.switch_cpus.committedInsts_total    2000000000                       # Number of Instructions Simulated
system.switch_cpus.cpi                       0.854008                       # CPI: Cycles Per Instruction
system.switch_cpus.cpi_total                 0.854008                       # CPI: Total CPI of All Threads
system.switch_cpus.ipc                       1.170949                       # IPC: Instructions Per Cycle
system.switch_cpus.ipc_total                 1.170949                       # IPC: Total IPC of All Threads
system.switch_cpus.int_regfile_reads       3078227754                       # number of integer regfile reads
system.switch_cpus.int_regfile_writes      1752673919                       # number of integer regfile writes
system.switch_cpus.fp_regfile_reads           8923379                       # number of floating regfile reads
system.switch_cpus.fp_regfile_writes          8817729                       # number of floating regfile writes
system.switch_cpus.misc_regfile_reads         1764011                       # number of misc regfile reads
system.switch_cpus.misc_regfile_writes         881828                       # number of misc regfile writes
system.l2.tags.numFaultyBlocks_VDD1              1081                       # number of faulty blocks in the cache at VDD1 (lowest)
system.l2.tags.numFaultyBlocks_VDD2              1081                       # number of faulty blocks in the cache at VDD2 (mid)
system.l2.tags.numFaultyBlocks_VDD3                 0                       # number of faulty blocks in the cache at VDD3 (highest)
system.l2.tags.blockFaultRate_VDD1           0.008247                       # Proportion of faulty blocks in the cache at VDD1
system.l2.tags.blockFaultRate_VDD2           0.008247                       # Proportion of faulty blocks in the cache at VDD2
system.l2.tags.blockFaultRate_VDD3                  0                       # Proportion of faulty blocks in the cache at VDD3
system.l2.tags.cycles_VDD1                 1008361795                       # Total number of cycles spent on VDD1
system.l2.tags.cycles_VDD2                  632153614                       # Total number of cycles spent on VDD2
system.l2.tags.cycles_VDD3                          0                       # Total number of cycles spent on VDD3
system.l2.tags.accessEnergy_VDD1         262689.949769                       # Total dynamic energy dissipated at VDD1 in nJ
system.l2.tags.accessEnergy_VDD2         151200.000000                       # Total dynamic energy dissipated at VDD2 in nJ
system.l2.tags.accessEnergy_VDD3                    0                       # Total dynamic energy dissipated at VDD3 in nJ
system.l2.tags.accessEnergy_tot          413889.949769                       # Total dynamic energy dissipated in nJ
system.l2.tags.transitionsTo_VDD1                  10                       # Total number of transitions to VDD1
system.l2.tags.transitionsTo_VDD2                  10                       # Total number of transitions to VDD2
system.l2.tags.transitionsTo_VDD3                   0                       # Total number of transitions to VDD3
system.l2.tags.avgConsecutiveCycles_VDD1 100836179.500000                       # Average number of consecutive cycles spent at VDD1
system.l2.tags.avgConsecutiveCycles_VDD2 63215361.400000                       # Average number of consecutive cycles spent at VDD2
system.l2.tags.avgConsecutiveCycles_VDD3          nan                       # Average number of consecutive cycles spent at VDD3
system.l2.tags.proportionExecTime_VDD1       0.614662                       # Proportion of total execution time that was spent at VDD1 for this cache
system.l2.tags.proportionExecTime_VDD2       0.385338                       # Proportion of total execution time that was spent at VDD2 for this cache
system.l2.tags.proportionExecTime_VDD3              0                       # Proportion of total execution time that was spent at VDD3 for this cache
system.l2.tags.staticPower_avg            6238.511304                       # Average static power of this cache over the entire execution
system.l2.tags.numUnchangedFaultyTo_VDD1        10810                       # Total number of unchanged (faulty) blocks during DPCS transition to VDD1
system.l2.tags.numUnchangedFaultyTo_VDD2        10810                       # Total number of unchanged (faulty) blocks during DPCS transition to VDD2
system.l2.tags.numUnchangedFaultyTo_VDD3            0                       # Total number of unchanged (faulty) blocks during DPCS transition to VDD3
system.l2.tags.numFaultyWriteBacksTo_VDD1            0                       # Total number of faulty writebacks during DPCS transition to VDD1
system.l2.tags.numFaultyWriteBacksTo_VDD2            0                       # Total number of faulty writebacks during DPCS transition to VDD2
system.l2.tags.numFaultyWriteBacksTo_VDD3            0                       # Total number of faulty writebacks during DPCS transition to VDD3
system.l2.tags.numInvalidateOnlyTo_VDD1             0                       # Total number of blocks only invalidated during DPCS transition to VDD1
system.l2.tags.numInvalidateOnlyTo_VDD2             0                       # Total number of blocks only invalidated during DPCS transition to VDD2
system.l2.tags.numInvalidateOnlyTo_VDD3             0                       # Total number of blocks only invalidated during DPCS transition to VDD3
system.l2.tags.numMadeAvailableTo_VDD1              0                       # Total number of blocks made available (faulty to non-faulty) during DPCS transition to VDD1
system.l2.tags.numMadeAvailableTo_VDD2              0                       # Total number of blocks made available (faulty to non-faulty) during DPCS transition to VDD2
system.l2.tags.numMadeAvailableTo_VDD3              0                       # Total number of blocks made available (faulty to non-faulty) during DPCS transition to VDD3
system.l2.tags.numUnchangedNotFaultyTo_VDD1      1299910                       # Total number of blocks unchanged (not faulty) during DPCS transition to VDD1
system.l2.tags.numUnchangedNotFaultyTo_VDD2      1299910                       # Total number of blocks unchanged (not faulty) during DPCS transition to VDD2
system.l2.tags.numUnchangedNotFaultyTo_VDD3            0                       # Total number of blocks unchanged (not faulty) during DPCS transition to VDD3
system.l2.tags.faultyWriteBackRateTo_VDD1            0                       # Average number of writebacks caused by faulty blocks when changing to VDD1
system.l2.tags.faultyWriteBackRateTo_VDD2            0                       # Average number of writebacks caused by faulty blocks when changing to VDD2
system.l2.tags.faultyWriteBackRateTo_VDD3          nan                       # Average number of writebacks caused by faulty blocks when changing to VDD3
system.l2.tags.replacements                    440915                       # number of replacements
system.l2.tags.tagsinuse                 129606.349462                       # Cycle average of tags in use
system.l2.tags.total_refs                      937938                       # Total number of references to valid blocks.
system.l2.tags.sampled_refs                    570600                       # Sample count of references to valid blocks.
system.l2.tags.avg_refs                      1.643775                       # Average number of references to valid blocks.
system.l2.tags.warmup_cycle                         0                       # Cycle when the warmup percentage was hit.
system.l2.tags.occ_blocks::writebacks    11806.628383                       # Average occupied blocks per requestor
system.l2.tags.occ_blocks::switch_cpus.inst    32.775449                       # Average occupied blocks per requestor
system.l2.tags.occ_blocks::switch_cpus.data 97239.095364                       # Average occupied blocks per requestor
system.l2.tags.occ_blocks::cpu.inst          3.525602                       # Average occupied blocks per requestor
system.l2.tags.occ_blocks::cpu.data      20524.324664                       # Average occupied blocks per requestor
system.l2.tags.occ_percent::writebacks       0.090077                       # Average percentage of cache occupancy
system.l2.tags.occ_percent::switch_cpus.inst     0.000250                       # Average percentage of cache occupancy
system.l2.tags.occ_percent::switch_cpus.data     0.741875                       # Average percentage of cache occupancy
system.l2.tags.occ_percent::cpu.inst         0.000027                       # Average percentage of cache occupancy
system.l2.tags.occ_percent::cpu.data         0.156588                       # Average percentage of cache occupancy
system.l2.tags.occ_percent::total            0.988818                       # Average percentage of cache occupancy
system.l2.ReadReq_hits::switch_cpus.data       187624                       # number of ReadReq hits
system.l2.ReadReq_hits::total                  187624                       # number of ReadReq hits
system.l2.Writeback_hits::writebacks           544188                       # number of Writeback hits
system.l2.Writeback_hits::total                544188                       # number of Writeback hits
system.l2.ReadExReq_hits::switch_cpus.data        80870                       # number of ReadExReq hits
system.l2.ReadExReq_hits::total                 80870                       # number of ReadExReq hits
system.l2.demand_hits::switch_cpus.data        268494                       # number of demand (read+write) hits
system.l2.demand_hits::total                   268494                       # number of demand (read+write) hits
system.l2.overall_hits::switch_cpus.data       268494                       # number of overall hits
system.l2.overall_hits::total                  268494                       # number of overall hits
system.l2.ReadReq_misses::switch_cpus.inst          121                       # number of ReadReq misses
system.l2.ReadReq_misses::switch_cpus.data       416876                       # number of ReadReq misses
system.l2.ReadReq_misses::total                416997                       # number of ReadReq misses
system.l2.ReadExReq_misses::switch_cpus.data        28374                       # number of ReadExReq misses
system.l2.ReadExReq_misses::total               28374                       # number of ReadExReq misses
system.l2.demand_misses::switch_cpus.inst          121                       # number of demand (read+write) misses
system.l2.demand_misses::switch_cpus.data       445250                       # number of demand (read+write) misses
system.l2.demand_misses::total                 445371                       # number of demand (read+write) misses
system.l2.overall_misses::switch_cpus.inst          121                       # number of overall misses
system.l2.overall_misses::switch_cpus.data       445250                       # number of overall misses
system.l2.overall_misses::total                445371                       # number of overall misses
system.l2.ReadReq_miss_latency::switch_cpus.inst     13180840                       # number of ReadReq miss cycles
system.l2.ReadReq_miss_latency::switch_cpus.data  37439091464                       # number of ReadReq miss cycles
system.l2.ReadReq_miss_latency::total     37452272304                       # number of ReadReq miss cycles
system.l2.ReadExReq_miss_latency::switch_cpus.data   1931449294                       # number of ReadExReq miss cycles
system.l2.ReadExReq_miss_latency::total    1931449294                       # number of ReadExReq miss cycles
system.l2.demand_miss_latency::switch_cpus.inst     13180840                       # number of demand (read+write) miss cycles
system.l2.demand_miss_latency::switch_cpus.data  39370540758                       # number of demand (read+write) miss cycles
system.l2.demand_miss_latency::total      39383721598                       # number of demand (read+write) miss cycles
system.l2.overall_miss_latency::switch_cpus.inst     13180840                       # number of overall miss cycles
system.l2.overall_miss_latency::switch_cpus.data  39370540758                       # number of overall miss cycles
system.l2.overall_miss_latency::total     39383721598                       # number of overall miss cycles
system.l2.ReadReq_accesses::switch_cpus.inst          121                       # number of ReadReq accesses(hits+misses)
system.l2.ReadReq_accesses::switch_cpus.data       604500                       # number of ReadReq accesses(hits+misses)
system.l2.ReadReq_accesses::total              604621                       # number of ReadReq accesses(hits+misses)
system.l2.Writeback_accesses::writebacks       544188                       # number of Writeback accesses(hits+misses)
system.l2.Writeback_accesses::total            544188                       # number of Writeback accesses(hits+misses)
system.l2.ReadExReq_accesses::switch_cpus.data       109244                       # number of ReadExReq accesses(hits+misses)
system.l2.ReadExReq_accesses::total            109244                       # number of ReadExReq accesses(hits+misses)
system.l2.demand_accesses::switch_cpus.inst          121                       # number of demand (read+write) accesses
system.l2.demand_accesses::switch_cpus.data       713744                       # number of demand (read+write) accesses
system.l2.demand_accesses::total               713865                       # number of demand (read+write) accesses
system.l2.overall_accesses::switch_cpus.inst          121                       # number of overall (read+write) accesses
system.l2.overall_accesses::switch_cpus.data       713744                       # number of overall (read+write) accesses
system.l2.overall_accesses::total              713865                       # number of overall (read+write) accesses
system.l2.ReadReq_miss_rate::switch_cpus.inst            1                       # miss rate for ReadReq accesses
system.l2.ReadReq_miss_rate::switch_cpus.data     0.689621                       # miss rate for ReadReq accesses
system.l2.ReadReq_miss_rate::total           0.689683                       # miss rate for ReadReq accesses
system.l2.ReadExReq_miss_rate::switch_cpus.data     0.259731                       # miss rate for ReadExReq accesses
system.l2.ReadExReq_miss_rate::total         0.259731                       # miss rate for ReadExReq accesses
system.l2.demand_miss_rate::switch_cpus.inst            1                       # miss rate for demand accesses
system.l2.demand_miss_rate::switch_cpus.data     0.623823                       # miss rate for demand accesses
system.l2.demand_miss_rate::total            0.623887                       # miss rate for demand accesses
system.l2.overall_miss_rate::switch_cpus.inst            1                       # miss rate for overall accesses
system.l2.overall_miss_rate::switch_cpus.data     0.623823                       # miss rate for overall accesses
system.l2.overall_miss_rate::total           0.623887                       # miss rate for overall accesses
system.l2.ReadReq_avg_miss_latency::switch_cpus.inst 108932.561983                       # average ReadReq miss latency
system.l2.ReadReq_avg_miss_latency::switch_cpus.data 89808.699623                       # average ReadReq miss latency
system.l2.ReadReq_avg_miss_latency::total 89814.248793                       # average ReadReq miss latency
system.l2.ReadExReq_avg_miss_latency::switch_cpus.data 68071.096567                       # average ReadExReq miss latency
system.l2.ReadExReq_avg_miss_latency::total 68071.096567                       # average ReadExReq miss latency
system.l2.demand_avg_miss_latency::switch_cpus.inst 108932.561983                       # average overall miss latency
system.l2.demand_avg_miss_latency::switch_cpus.data 88423.449204                       # average overall miss latency
system.l2.demand_avg_miss_latency::total 88429.021194                       # average overall miss latency
system.l2.overall_avg_miss_latency::switch_cpus.inst 108932.561983                       # average overall miss latency
system.l2.overall_avg_miss_latency::switch_cpus.data 88423.449204                       # average overall miss latency
system.l2.overall_avg_miss_latency::total 88429.021194                       # average overall miss latency
system.l2.blocked_cycles::no_mshrs                  0                       # number of cycles access was blocked
system.l2.blocked_cycles::no_targets                0                       # number of cycles access was blocked
system.l2.blocked::no_mshrs                         0                       # number of cycles access was blocked
system.l2.blocked::no_targets                       0                       # number of cycles access was blocked
system.l2.avg_blocked_cycles::no_mshrs            nan                       # average number of cycles each access was blocked
system.l2.avg_blocked_cycles::no_targets          nan                       # average number of cycles each access was blocked
system.l2.fast_writes                               0                       # number of fast writes performed
system.l2.cache_copies                              0                       # number of cache copies performed
system.l2.writebacks::writebacks               354080                       # number of writebacks
system.l2.writebacks::total                    354080                       # number of writebacks
system.l2.ReadReq_mshr_misses::switch_cpus.inst          121                       # number of ReadReq MSHR misses
system.l2.ReadReq_mshr_misses::switch_cpus.data       416876                       # number of ReadReq MSHR misses
system.l2.ReadReq_mshr_misses::total           416997                       # number of ReadReq MSHR misses
system.l2.ReadExReq_mshr_misses::switch_cpus.data        28374                       # number of ReadExReq MSHR misses
system.l2.ReadExReq_mshr_misses::total          28374                       # number of ReadExReq MSHR misses
system.l2.demand_mshr_misses::switch_cpus.inst          121                       # number of demand (read+write) MSHR misses
system.l2.demand_mshr_misses::switch_cpus.data       445250                       # number of demand (read+write) MSHR misses
system.l2.demand_mshr_misses::total            445371                       # number of demand (read+write) MSHR misses
system.l2.overall_mshr_misses::switch_cpus.inst          121                       # number of overall MSHR misses
system.l2.overall_mshr_misses::switch_cpus.data       445250                       # number of overall MSHR misses
system.l2.overall_mshr_misses::total           445371                       # number of overall MSHR misses
system.l2.ReadReq_mshr_miss_latency::switch_cpus.inst     12275678                       # number of ReadReq MSHR miss cycles
system.l2.ReadReq_mshr_miss_latency::switch_cpus.data  34363280290                       # number of ReadReq MSHR miss cycles
system.l2.ReadReq_mshr_miss_latency::total  34375555968                       # number of ReadReq MSHR miss cycles
system.l2.ReadExReq_mshr_miss_latency::switch_cpus.data   1716688916                       # number of ReadExReq MSHR miss cycles
system.l2.ReadExReq_mshr_miss_latency::total   1716688916                       # number of ReadExReq MSHR miss cycles
system.l2.demand_mshr_miss_latency::switch_cpus.inst     12275678                       # number of demand (read+write) MSHR miss cycles
system.l2.demand_mshr_miss_latency::switch_cpus.data  36079969206                       # number of demand (read+write) MSHR miss cycles
system.l2.demand_mshr_miss_latency::total  36092244884                       # number of demand (read+write) MSHR miss cycles
[...]
system.cpu.dcache.tags.accessEnergy_tot  38262038.276324                       # Total dynamic energy dissipated in nJ
system.cpu.dcache.tags.transitionsTo_VDD1          371                       # Total number of transitions to VDD1
system.cpu.dcache.tags.transitionsTo_VDD2          371                       # Total number of transitions to VDD2
system.cpu.dcache.tags.transitionsTo_VDD3            0                       # Total number of transitions to VDD3
system.cpu.dcache.tags.avgConsecutiveCycles_VDD1 4382925.703504                       # Average number of consecutive cycles spent at VDD1
system.cpu.dcache.tags.avgConsecutiveCycles_VDD2 230863.725067                       # Average number of consecutive cycles spent at VDD2
system.cpu.dcache.tags.avgConsecutiveCycles_VDD3          nan                       # Average number of consecutive cycles spent at VDD3
system.cpu.dcache.tags.proportionExecTime_VDD1     0.949962                       # Proportion of total execution time that was spent at VDD1 for this cache
system.cpu.dcache.tags.proportionExecTime_VDD2     0.050038                       # Proportion of total execution time that was spent at VDD2 for this cache
system.cpu.dcache.tags.proportionExecTime_VDD3            0                       # Proportion of total execution time that was spent at VDD3 for this cache
system.cpu.dcache.tags.staticPower_avg     224.083843                       # Average static power of this cache over the entire execution
system.cpu.dcache.tags.numUnchangedFaultyTo_VDD1        15582                       # Total number of unchanged (faulty) blocks during DPCS transition to VDD1
system.cpu.dcache.tags.numUnchangedFaultyTo_VDD2        15582                       # Total number of unchanged (faulty) blocks during DPCS transition to VDD2
system.cpu.dcache.tags.numUnchangedFaultyTo_VDD3            0                       # Total number of unchanged (faulty) blocks during DPCS transition to VDD3
system.cpu.dcache.tags.numFaultyWriteBacksTo_VDD1        24468                       # Total number of faulty writebacks during DPCS transition to VDD1
system.cpu.dcache.tags.numFaultyWriteBacksTo_VDD2            0                       # Total number of faulty writebacks during DPCS transition to VDD2
system.cpu.dcache.tags.numFaultyWriteBacksTo_VDD3            0                       # Total number of faulty writebacks during DPCS transition to VDD3
system.cpu.dcache.tags.numInvalidateOnlyTo_VDD1       403666                       # Total number of blocks only invalidated during DPCS transition to VDD1
system.cpu.dcache.tags.numInvalidateOnlyTo_VDD2            0                       # Total number of blocks only invalidated during DPCS transition to VDD2
system.cpu.dcache.tags.numInvalidateOnlyTo_VDD3            0                       # Total number of blocks only invalidated during DPCS transition to VDD3
system.cpu.dcache.tags.numMadeAvailableTo_VDD1            0                       # Total number of blocks made available (faulty to non-faulty) during DPCS transition to VDD1
system.cpu.dcache.tags.numMadeAvailableTo_VDD2       428134                       # Total number of blocks made available (faulty to non-faulty) during DPCS transition to VDD2
system.cpu.dcache.tags.numMadeAvailableTo_VDD3            0                       # Total number of blocks made available (faulty to non-faulty) during DPCS transition to VDD3
system.cpu.dcache.tags.numUnchangedNotFaultyTo_VDD1      1075900                       # Total number of blocks unchanged (not faulty) during DPCS transition to VDD1
system.cpu.dcache.tags.numUnchangedNotFaultyTo_VDD2      1075900                       # Total number of blocks unchanged (not faulty) during DPCS transition to VDD2
system.cpu.dcache.tags.numUnchangedNotFaultyTo_VDD3            0                       # Total number of blocks unchanged (not faulty) during DPCS transition to VDD3
system.cpu.dcache.tags.faultyWriteBackRateTo_VDD1    65.951482                       # Average number of writebacks caused by faulty blocks when changing to VDD1
system.cpu.dcache.tags.faultyWriteBackRateTo_VDD2            0                       # Average number of writebacks caused by faulty blocks when changing to VDD2
system.cpu.dcache.tags.faultyWriteBackRateTo_VDD3          nan                       # Average number of writebacks caused by faulty blocks when changing to VDD3
system.cpu.dcache.tags.replacements            681690                       # number of replacements
system.cpu.dcache.tags.tagsinuse          2902.213595                       # Cycle average of tags in use
system.cpu.dcache.tags.total_refs           946419192                       # Total number of references to valid blocks.
system.cpu.dcache.tags.sampled_refs            684590                       # Sample count of references to valid blocks.
system.cpu.dcache.tags.avg_refs           1382.461316                       # Average number of references to valid blocks.
system.cpu.dcache.tags.warmup_cycle                 0                       # Cycle when the warmup percentage was hit.
system.cpu.dcache.tags.occ_blocks::switch_cpus.data  2690.113603                       # Average occupied blocks per requestor
system.cpu.dcache.tags.occ_blocks::cpu.data   212.099993                       # Average occupied blocks per requestor
system.cpu.dcache.tags.occ_percent::switch_cpus.data     0.656766                       # Average percentage of cache occupancy
system.cpu.dcache.tags.occ_percent::cpu.data     0.051782                       # Average percentage of cache occupancy
system.cpu.dcache.tags.occ_percent::total     0.708548                       # Average percentage of cache occupancy
system.cpu.dcache.ReadReq_hits::switch_cpus.data    579596992                       # number of ReadReq hits
system.cpu.dcache.ReadReq_hits::total       579596992                       # number of ReadReq hits
system.cpu.dcache.WriteReq_hits::switch_cpus.data    157942018                       # number of WriteReq hits
system.cpu.dcache.WriteReq_hits::total      157942018                       # number of WriteReq hits
system.cpu.dcache.LoadLockedReq_hits::switch_cpus.data           27                       # number of LoadLockedReq hits
system.cpu.dcache.LoadLockedReq_hits::total           27                       # number of LoadLockedReq hits
system.cpu.dcache.StoreCondReq_hits::switch_cpus.data           30                       # number of StoreCondReq hits
system.cpu.dcache.StoreCondReq_hits::total           30                       # number of StoreCondReq hits
system.cpu.dcache.demand_hits::switch_cpus.data    737539010                       # number of demand (read+write) hits
system.cpu.dcache.demand_hits::total        737539010                       # number of demand (read+write) hits
system.cpu.dcache.overall_hits::switch_cpus.data    737539010                       # number of overall hits
system.cpu.dcache.overall_hits::total       737539010                       # number of overall hits
system.cpu.dcache.ReadReq_misses::switch_cpus.data      1051073                       # number of ReadReq misses
system.cpu.dcache.ReadReq_misses::total       1051073                       # number of ReadReq misses
system.cpu.dcache.WriteReq_misses::switch_cpus.data       329652                       # number of WriteReq misses
system.cpu.dcache.WriteReq_misses::total       329652                       # number of WriteReq misses
system.cpu.dcache.LoadLockedReq_misses::switch_cpus.data            3                       # number of LoadLockedReq misses
system.cpu.dcache.LoadLockedReq_misses::total            3                       # number of LoadLockedReq misses
system.cpu.dcache.demand_misses::switch_cpus.data      1380725                       # number of demand (read+write) misses
system.cpu.dcache.demand_misses::total        1380725                       # number of demand (read+write) misses
system.cpu.dcache.overall_misses::switch_cpus.data      1380725                       # number of overall misses
system.cpu.dcache.overall_misses::total       1380725                       # number of overall misses
system.cpu.dcache.ReadReq_miss_latency::switch_cpus.data  62723599792                       # number of ReadReq miss cycles
system.cpu.dcache.ReadReq_miss_latency::total  62723599792                       # number of ReadReq miss cycles
system.cpu.dcache.WriteReq_miss_latency::switch_cpus.data   6932427687                       # number of WriteReq miss cycles
system.cpu.dcache.WriteReq_miss_latency::total   6932427687                       # number of WriteReq miss cycles
system.cpu.dcache.LoadLockedReq_miss_latency::switch_cpus.data        90226                       # number of LoadLockedReq miss cycles
system.cpu.dcache.LoadLockedReq_miss_latency::total        90226                       # number of LoadLockedReq miss cycles
system.cpu.dcache.demand_miss_latency::switch_cpus.data  69656027479                       # number of demand (read+write) miss cycles
system.cpu.dcache.demand_miss_latency::total  69656027479                       # number of demand (read+write) miss cycles
system.cpu.dcache.overall_miss_latency::switch_cpus.data  69656027479                       # number of overall miss cycles
system.cpu.dcache.overall_miss_latency::total  69656027479                       # number of overall miss cycles
system.cpu.dcache.ReadReq_accesses::switch_cpus.data    580648065                       # number of ReadReq accesses(hits+misses)
system.cpu.dcache.ReadReq_accesses::total    580648065                       # number of ReadReq accesses(hits+misses)
system.cpu.dcache.WriteReq_accesses::switch_cpus.data    158271670                       # number of WriteReq accesses(hits+misses)
system.cpu.dcache.WriteReq_accesses::total    158271670                       # number of WriteReq accesses(hits+misses)
system.cpu.dcache.LoadLockedReq_accesses::switch_cpus.data           30                       # number of LoadLockedReq accesses(hits+misses)
system.cpu.dcache.LoadLockedReq_accesses::total           30                       # number of LoadLockedReq accesses(hits+misses)
system.cpu.dcache.StoreCondReq_accesses::switch_cpus.data           30                       # number of StoreCondReq accesses(hits+misses)
system.cpu.dcache.StoreCondReq_accesses::total           30                       # number of StoreCondReq accesses(hits+misses)
system.cpu.dcache.demand_accesses::switch_cpus.data    738919735                       # number of demand (read+write) accesses
system.cpu.dcache.demand_accesses::total    738919735                       # number of demand (read+write) accesses
system.cpu.dcache.overall_accesses::switch_cpus.data    738919735                       # number of overall (read+write) accesses
system.cpu.dcache.overall_accesses::total    738919735                       # number of overall (read+write) accesses
system.cpu.dcache.ReadReq_miss_rate::switch_cpus.data     0.001810                       # miss rate for ReadReq accesses
system.cpu.dcache.ReadReq_miss_rate::total     0.001810                       # miss rate for ReadReq accesses
system.cpu.dcache.WriteReq_miss_rate::switch_cpus.data     0.002083                       # miss rate for WriteReq accesses
system.cpu.dcache.WriteReq_miss_rate::total     0.002083                       # miss rate for WriteReq accesses
system.cpu.dcache.LoadLockedReq_miss_rate::switch_cpus.data     0.100000                       # miss rate for LoadLockedReq accesses
system.cpu.dcache.LoadLockedReq_miss_rate::total     0.100000                       # miss rate for LoadLockedReq accesses
system.cpu.dcache.demand_miss_rate::switch_cpus.data     0.001869                       # miss rate for demand accesses
system.cpu.dcache.demand_miss_rate::total     0.001869                       # miss rate for demand accesses
system.cpu.dcache.overall_miss_rate::switch_cpus.data     0.001869                       # miss rate for overall accesses
system.cpu.dcache.overall_miss_rate::total     0.001869                       # miss rate for overall accesses
system.cpu.dcache.ReadReq_avg_miss_latency::switch_cpus.data 59675.778744                       # average ReadReq miss latency
system.cpu.dcache.ReadReq_avg_miss_latency::total 59675.778744                       # average ReadReq miss latency
system.cpu.dcache.WriteReq_avg_miss_latency::switch_cpus.data 21029.533226                       # average WriteReq miss latency
system.cpu.dcache.WriteReq_avg_miss_latency::total 21029.533226                       # average WriteReq miss latency
system.cpu.dcache.LoadLockedReq_avg_miss_latency::switch_cpus.data 30075.333333                       # average LoadLockedReq miss latency
system.cpu.dcache.LoadLockedReq_avg_miss_latency::total 30075.333333                       # average LoadLockedReq miss latency
system.cpu.dcache.demand_avg_miss_latency::switch_cpus.data 50448.878291                       # average overall miss latency
system.cpu.dcache.demand_avg_miss_latency::total 50448.878291                       # average overall miss latency
system.cpu.dcache.overall_avg_miss_latency::switch_cpus.data 50448.878291                       # average overall miss latency
system.cpu.dcache.overall_avg_miss_latency::total 50448.878291                       # average overall miss latency
system.cpu.dcache.blocked_cycles::no_mshrs        13479                       # number of cycles access was blocked
system.cpu.dcache.blocked_cycles::no_targets            0                       # number of cycles access was blocked
system.cpu.dcache.blocked::no_mshrs               740                       # number of cycles access was blocked
system.cpu.dcache.blocked::no_targets               0                       # number of cycles access was blocked
system.cpu.dcache.avg_blocked_cycles::no_mshrs    18.214865                       # average number of cycles each access was blocked
system.cpu.dcache.avg_blocked_cycles::no_targets          nan                       # average number of cycles each access was blocked
system.cpu.dcache.fast_writes                       0                       # number of fast writes performed
system.cpu.dcache.cache_copies                      0                       # number of cache copies performed
system.cpu.dcache.writebacks::writebacks       544188                       # number of writebacks
system.cpu.dcache.writebacks::total            544188                       # number of writebacks
system.cpu.dcache.ReadReq_mshr_hits::switch_cpus.data       446553                       # number of ReadReq MSHR hits
system.cpu.dcache.ReadReq_mshr_hits::total       446553                       # number of ReadReq MSHR hits
system.cpu.dcache.WriteReq_mshr_hits::switch_cpus.data       220428                       # number of WriteReq MSHR hits
system.cpu.dcache.WriteReq_mshr_hits::total       220428                       # number of WriteReq MSHR hits
system.cpu.dcache.LoadLockedReq_mshr_hits::switch_cpus.data            3                       # number of LoadLockedReq MSHR hits
system.cpu.dcache.LoadLockedReq_mshr_hits::total            3                       # number of LoadLockedReq MSHR hits
system.cpu.dcache.demand_mshr_hits::switch_cpus.data       666981                       # number of demand (read+write) MSHR hits
system.cpu.dcache.demand_mshr_hits::total       666981                       # number of demand (read+write) MSHR hits
system.cpu.dcache.overall_mshr_hits::switch_cpus.data       666981                       # number of overall MSHR hits
system.cpu.dcache.overall_mshr_hits::total       666981                       # number of overall MSHR hits
system.cpu.dcache.ReadReq_mshr_misses::switch_cpus.data       604520                       # number of ReadReq MSHR misses
system.cpu.dcache.ReadReq_mshr_misses::total       604520                       # number of ReadReq MSHR misses
system.cpu.dcache.WriteReq_mshr_misses::switch_cpus.data       109224                       # number of WriteReq MSHR misses
system.cpu.dcache.WriteReq_mshr_misses::total       109224                       # number of WriteReq MSHR misses
system.cpu.dcache.demand_mshr_misses::switch_cpus.data       713744                       # number of demand (read+write) MSHR misses
system.cpu.dcache.demand_mshr_misses::total       713744                       # number of demand (read+write) MSHR misses
system.cpu.dcache.overall_mshr_misses::switch_cpus.data       713744                       # number of overall MSHR misses
system.cpu.dcache.overall_mshr_misses::total       713744                       # number of overall MSHR misses
system.cpu.dcache.ReadReq_mshr_miss_latency::switch_cpus.data  38571896470                       # number of ReadReq MSHR miss cycles
system.cpu.dcache.ReadReq_mshr_miss_latency::total  38571896470                       # number of ReadReq MSHR miss cycles
system.cpu.dcache.WriteReq_mshr_miss_latency::switch_cpus.data   2259016738                       # number of WriteReq MSHR miss cycles
system.cpu.dcache.WriteReq_mshr_miss_latency::total   2259016738                       # number of WriteReq MSHR miss cycles
system.cpu.dcache.demand_mshr_miss_latency::switch_cpus.data  40830913208                       # number of demand (read+write) MSHR miss cycles
system.cpu.dcache.demand_mshr_miss_latency::total  40830913208                       # number of demand (read+write) MSHR miss cycles
system.cpu.dcache.overall_mshr_miss_latency::switch_cpus.data  40830913208                       # number of overall MSHR miss cycles
system.cpu.dcache.overall_mshr_miss_latency::total  40830913208                       # number of overall MSHR miss cycles
system.cpu.dcache.ReadReq_mshr_miss_rate::switch_cpus.data     0.001041                       # mshr miss rate for ReadReq accesses
system.cpu.dcache.ReadReq_mshr_miss_rate::total     0.001041                       # mshr miss rate for ReadReq accesses
system.cpu.dcache.WriteReq_mshr_miss_rate::switch_cpus.data     0.000690                       # mshr miss rate for WriteReq accesses
system.cpu.dcache.WriteReq_mshr_miss_rate::total     0.000690                       # mshr miss rate for WriteReq accesses
system.cpu.dcache.demand_mshr_miss_rate::switch_cpus.data     0.000966                       # mshr miss rate for demand accesses
system.cpu.dcache.demand_mshr_miss_rate::total     0.000966                       # mshr miss rate for demand accesses
system.cpu.dcache.overall_mshr_miss_rate::switch_cpus.data     0.000966                       # mshr miss rate for overall accesses
system.cpu.dcache.overall_mshr_miss_rate::total     0.000966                       # mshr miss rate for overall accesses
system.cpu.dcache.ReadReq_avg_mshr_miss_latency::switch_cpus.data 63805.823579                       # average ReadReq mshr miss latency
system.cpu.dcache.ReadReq_avg_mshr_miss_latency::total 63805.823579                       # average ReadReq mshr miss latency
system.cpu.dcache.WriteReq_avg_mshr_miss_latency::switch_cpus.data 20682.420878                       # average WriteReq mshr miss latency
system.cpu.dcache.WriteReq_avg_mshr_miss_latency::total 20682.420878                       # average WriteReq mshr miss latency
system.cpu.dcache.demand_avg_mshr_miss_latency::switch_cpus.data 57206.664025                       # average overall mshr miss latency
system.cpu.dcache.demand_avg_mshr_miss_latency::total 57206.664025                       # average overall mshr miss latency
system.cpu.dcache.overall_avg_mshr_miss_latency::switch_cpus.data 57206.664025                       # average overall mshr miss latency
system.cpu.dcache.overall_avg_mshr_miss_latency::total 57206.664025                       # average overall mshr miss latency
system.cpu.dcache.no_allocate_misses                0                       # Number of misses that were no-allocate

---------- End Simulation Statistics   ----------
