
---------- Begin Simulation Statistics ----------
sim_seconds                                  0.622946                       # Number of seconds simulated
sim_ticks                                622945521500                       # Number of ticks simulated
final_tick                               1124012421000                       # Number of ticks from beginning of simulation (restored from checkpoints and never reset)
sim_freq                                 1000000000000                       # Frequency of simulated ticks
host_inst_rate                                 183466                       # Simulator instruction rate (inst/s)
host_op_rate                                   183466                       # Simulator op (including micro ops) rate (op/s)
host_tick_rate                               38096492                       # Simulator tick rate (ticks/s)
host_mem_usage                                2336552                       # Number of bytes of host memory used
host_seconds                                 16351.78                       # Real time elapsed on the host
sim_insts                                  3000000005                       # Number of instructions simulated
sim_ops                                    3000000005                       # Number of ops (including micro ops) simulated
system.mem_ctrls.bytes_read::switch_cpus.inst         1344                       # Number of bytes read from this memory
system.mem_ctrls.bytes_read::switch_cpus.data     78348224                       # Number of bytes read from this memory
system.mem_ctrls.bytes_read::total           78349568                       # Number of bytes read from this memory
system.mem_ctrls.bytes_inst_read::switch_cpus.inst         1344                       # Number of instructions bytes read from this memory
system.mem_ctrls.bytes_inst_read::total          1344                       # Number of instructions bytes read from this memory
system.mem_ctrls.bytes_written::writebacks     55336256                       # Number of bytes written to this memory
system.mem_ctrls.bytes_written::total        55336256                       # Number of bytes written to this memory
system.mem_ctrls.num_reads::switch_cpus.inst           21                       # Number of read requests responded to by this memory
system.mem_ctrls.num_reads::switch_cpus.data      1224191                       # Number of read requests responded to by this memory
system.mem_ctrls.num_reads::total             1224212                       # Number of read requests responded to by this memory
system.mem_ctrls.num_writes::writebacks        864629                       # Number of write requests responded to by this memory
system.mem_ctrls.num_writes::total             864629                       # Number of write requests responded to by this memory
system.mem_ctrls.bw_read::switch_cpus.inst         2157                       # Total read bandwidth from this memory (bytes/s)
system.mem_ctrls.bw_read::switch_cpus.data    125770587                       # Total read bandwidth from this memory (bytes/s)
system.mem_ctrls.bw_read::total             125772745                       # Total read bandwidth from this memory (bytes/s)
system.mem_ctrls.bw_inst_read::switch_cpus.inst         2157                       # Instruction read bandwidth from this memory (bytes/s)
system.mem_ctrls.bw_inst_read::total             2157                       # Instruction read bandwidth from this memory (bytes/s)
system.mem_ctrls.bw_write::writebacks        88830009                       # Write bandwidth from this memory (bytes/s)
system.mem_ctrls.bw_write::total             88830009                       # Write bandwidth from this memory (bytes/s)
system.mem_ctrls.bw_total::writebacks        88830009                       # Total bandwidth to/from this memory (bytes/s)
system.mem_ctrls.bw_total::switch_cpus.inst         2157                       # Total bandwidth to/from this memory (bytes/s)
system.mem_ctrls.bw_total::switch_cpus.data    125770587                       # Total bandwidth to/from this memory (bytes/s)
system.mem_ctrls.bw_total::total            214602753                       # Total bandwidth to/from this memory (bytes/s)
system.mem_ctrls.readReqs                     1224212                       # Total number of read requests accepted by DRAM controller
system.mem_ctrls.writeReqs                     864629                       # Total number of write requests accepted by DRAM controller
system.mem_ctrls.readBursts                   1224212                       # Total number of DRAM read bursts. Each DRAM read request translates to either one or multiple DRAM read bursts
system.mem_ctrls.writeBursts                   864629                       # Total number of DRAM write bursts. Each DRAM write request translates to either one or multiple DRAM write bursts
system.mem_ctrls.bytesRead                   78349568                       # Total number of bytes read from memory
system.mem_ctrls.bytesWritten                55336256                       # Total number of bytes written to memory
system.mem_ctrls.bytesConsumedRd             78349568                       # bytesRead derated as per pkt->getSize()
system.mem_ctrls.bytesConsumedWr             55336256                       # bytesWritten derated as per pkt->getSize()
system.mem_ctrls.servicedByWrQ                    719                       # Number of DRAM read bursts serviced by write Q
system.mem_ctrls.neitherReadNorWrite                0                       # Reqs where no action is needed
system.mem_ctrls.perBankRdReqs::0               74447                       # Track reads on a per bank basis
system.mem_ctrls.perBankRdReqs::1               74753                       # Track reads on a per bank basis
system.mem_ctrls.perBankRdReqs::2               75797                       # Track reads on a per bank basis
system.mem_ctrls.perBankRdReqs::3               77005                       # Track reads on a per bank basis
system.mem_ctrls.perBankRdReqs::4               74512                       # Track reads on a per bank basis
system.mem_ctrls.perBankRdReqs::5               83697                       # Track reads on a per bank basis
system.mem_ctrls.perBankRdReqs::6               82159                       # Track reads on a per bank basis
system.mem_ctrls.perBankRdReqs::7               81105                       # Track reads on a per bank basis
system.mem_ctrls.perBankRdReqs::8               78400                       # Track reads on a per bank basis
system.mem_ctrls.perBankRdReqs::9               78066                       # Track reads on a per bank basis
system.mem_ctrls.perBankRdReqs::10              78730                       # Track reads on a per bank basis
system.mem_ctrls.perBankRdReqs::11              80841                       # Track reads on a per bank basis
system.mem_ctrls.perBankRdReqs::12              73814                       # Track reads on a per bank basis
system.mem_ctrls.perBankRdReqs::13              70981                       # Track reads on a per bank basis
system.mem_ctrls.perBankRdReqs::14              69997                       # Track reads on a per bank basis
system.mem_ctrls.perBankRdReqs::15              69189                       # Track reads on a per bank basis
system.mem_ctrls.perBankWrReqs::0               52323                       # Track writes on a per bank basis
system.mem_ctrls.perBankWrReqs::1               52767                       # Track writes on a per bank basis
system.mem_ctrls.perBankWrReqs::2               54530                       # Track writes on a per bank basis
system.mem_ctrls.perBankWrReqs::3               55090                       # Track writes on a per bank basis
system.mem_ctrls.perBankWrReqs::4               52801                       # Track writes on a per bank basis
system.mem_ctrls.perBankWrReqs::5               58194                       # Track writes on a per bank basis
system.mem_ctrls.perBankWrReqs::6               57300                       # Track writes on a per bank basis
system.mem_ctrls.perBankWrReqs::7               57140                       # Track writes on a per bank basis
system.mem_ctrls.perBankWrReqs::8               55781                       # Track writes on a per bank basis
system.mem_ctrls.perBankWrReqs::9               55367                       # Track writes on a per bank basis
system.mem_ctrls.perBankWrReqs::10              55465                       # Track writes on a per bank basis
system.mem_ctrls.perBankWrReqs::11              57413                       # Track writes on a per bank basis
system.mem_ctrls.perBankWrReqs::12              51693                       # Track writes on a per bank basis
system.mem_ctrls.perBankWrReqs::13              49907                       # Track writes on a per bank basis
system.mem_ctrls.perBankWrReqs::14              49568                       # Track writes on a per bank basis
system.mem_ctrls.perBankWrReqs::15              49290                       # Track writes on a per bank basis
system.mem_ctrls.numRdRetry                         0                       # Number of times rd buffer was full causing retry
system.mem_ctrls.numWrRetry                         0                       # Number of times wr buffer was full causing retry
system.mem_ctrls.totGap                  620303735000                       # Total gap between requests
system.mem_ctrls.readPktSize::0                     0                       # Categorize read packet sizes
system.mem_ctrls.readPktSize::1                     0                       # Categorize read packet sizes
system.mem_ctrls.readPktSize::2                     0                       # Categorize read packet sizes
system.mem_ctrls.readPktSize::3                     0                       # Categorize read packet sizes
system.mem_ctrls.readPktSize::4                     0                       # Categorize read packet sizes
system.mem_ctrls.readPktSize::5                     0                       # Categorize read packet sizes
system.mem_ctrls.readPktSize::6               1224212                       # Categorize read packet sizes
system.mem_ctrls.writePktSize::0                    0                       # Categorize write packet sizes
system.mem_ctrls.writePktSize::1                    0                       # Categorize write packet sizes
system.mem_ctrls.writePktSize::2                    0                       # Categorize write packet sizes
system.mem_ctrls.writePktSize::3                    0                       # Categorize write packet sizes
system.mem_ctrls.writePktSize::4                    0                       # Categorize write packet sizes
system.mem_ctrls.writePktSize::5                    0                       # Categorize write packet sizes
system.mem_ctrls.writePktSize::6               864629                       # Categorize write packet sizes
system.mem_ctrls.rdQLenPdf::0                 1088309                       # What read queue length does an incoming req see
system.mem_ctrls.rdQLenPdf::1                   97579                       # What read queue length does an incoming req see
system.mem_ctrls.rdQLenPdf::2                   25741                       # What read queue length does an incoming req see
system.mem_ctrls.rdQLenPdf::3                   11862                       # What read queue length does an incoming req see
system.mem_ctrls.rdQLenPdf::4                       2                       # What read queue length does an incoming req see
system.mem_ctrls.rdQLenPdf::5                       0                       # What read queue length does an incoming req see
system.mem_ctrls.rdQLenPdf::6                       0                       # What read queue length does an incoming req see
system.mem_ctrls.rdQLenPdf::7                       0                       # What read queue length does an incoming req see
system.mem_ctrls.rdQLenPdf::8                       0                       # What read queue length does an incoming req see
system.mem_ctrls.rdQLenPdf::9                       0                       # What read queue length does an incoming req see
system.mem_ctrls.rdQLenPdf::10                      0                       # What read queue length does an incoming req see
system.mem_ctrls.rdQLenPdf::11                      0                       # What read queue length does an incoming req see
system.mem_ctrls.rdQLenPdf::12                      0                       # What read queue length does an incoming req see
system.mem_ctrls.rdQLenPdf::13                      0                       # What read queue length does an incoming req see
system.mem_ctrls.rdQLenPdf::14                      0                       # What read queue length does an incoming req see
system.mem_ctrls.rdQLenPdf::15                      0                       # What read queue length does an incoming req see
system.mem_ctrls.rdQLenPdf::16                      0                       # What read queue length does an incoming req see
system.mem_ctrls.rdQLenPdf::17                      0                       # What read queue length does an incoming req see
system.mem_ctrls.rdQLenPdf::18                      0                       # What read queue length does an incoming req see
system.mem_ctrls.rdQLenPdf::19                      0                       # What read queue length does an incoming req see
system.mem_ctrls.rdQLenPdf::20                      0                       # What read queue length does an incoming req see
system.mem_ctrls.rdQLenPdf::21                      0                       # What read queue length does an incoming req see
system.mem_ctrls.rdQLenPdf::22                      0                       # What read queue length does an incoming req see
system.mem_ctrls.rdQLenPdf::23                      0                       # What read queue length does an incoming req see
system.mem_ctrls.rdQLenPdf::24                      0                       # What read queue length does an incoming req see
system.mem_ctrls.rdQLenPdf::25                      0                       # What read queue length does an incoming req see
system.mem_ctrls.rdQLenPdf::26                      0                       # What read queue length does an incoming req see
system.mem_ctrls.rdQLenPdf::27                      0                       # What read queue length does an incoming req see
system.mem_ctrls.rdQLenPdf::28                      0                       # What read queue length does an incoming req see
system.mem_ctrls.rdQLenPdf::29                      0                       # What read queue length does an incoming req see
system.mem_ctrls.rdQLenPdf::30                      0                       # What read queue length does an incoming req see
system.mem_ctrls.rdQLenPdf::31                      0                       # What read queue length does an incoming req see
system.mem_ctrls.wrQLenPdf::0                   34580                       # What write queue length does an incoming req see
system.mem_ctrls.wrQLenPdf::1                   37529                       # What write queue length does an incoming req see
system.mem_ctrls.wrQLenPdf::2                   37589                       # What write queue length does an incoming req see
system.mem_ctrls.wrQLenPdf::3                   37592                       # What write queue length does an incoming req see
system.mem_ctrls.wrQLenPdf::4                   37593                       # What write queue length does an incoming req see
system.mem_ctrls.wrQLenPdf::5                   37593                       # What write queue length does an incoming req see
system.mem_ctrls.wrQLenPdf::6                   37593                       # What write queue length does an incoming req see
system.mem_ctrls.wrQLenPdf::7                   37593                       # What write queue length does an incoming req see
system.mem_ctrls.wrQLenPdf::8                   37593                       # What write queue length does an incoming req see
system.mem_ctrls.wrQLenPdf::9                   37593                       # What write queue length does an incoming req see
system.mem_ctrls.wrQLenPdf::10                  37593                       # What write queue length does an incoming req see
system.mem_ctrls.wrQLenPdf::11                  37593                       # What write queue length does an incoming req see
system.mem_ctrls.wrQLenPdf::12                  37593                       # What write queue length does an incoming req see
system.mem_ctrls.wrQLenPdf::13                  37592                       # What write queue length does an incoming req see
system.mem_ctrls.wrQLenPdf::14                  37592                       # What write queue length does an incoming req see
system.mem_ctrls.wrQLenPdf::15                  37592                       # What write queue length does an incoming req see
system.mem_ctrls.wrQLenPdf::16                  37592                       # What write queue length does an incoming req see
system.mem_ctrls.wrQLenPdf::17                  37592                       # What write queue length does an incoming req see
system.mem_ctrls.wrQLenPdf::18                  37592                       # What write queue length does an incoming req see
system.mem_ctrls.wrQLenPdf::19                  37592                       # What write queue length does an incoming req see
system.mem_ctrls.wrQLenPdf::20                  37592                       # What write queue length does an incoming req see
system.mem_ctrls.wrQLenPdf::21                  37592                       # What write queue length does an incoming req see
system.mem_ctrls.wrQLenPdf::22                  37592                       # What write queue length does an incoming req see
system.mem_ctrls.wrQLenPdf::23                   3013                       # What write queue length does an incoming req see
system.mem_ctrls.wrQLenPdf::24                     64                       # What write queue length does an incoming req see
system.mem_ctrls.wrQLenPdf::25                      4                       # What write queue length does an incoming req see
system.mem_ctrls.wrQLenPdf::26                      1                       # What write queue length does an incoming req see
system.mem_ctrls.wrQLenPdf::27                      0                       # What write queue length does an incoming req see
system.mem_ctrls.wrQLenPdf::28                      0                       # What write queue length does an incoming req see
system.mem_ctrls.wrQLenPdf::29                      0                       # What write queue length does an incoming req see
system.mem_ctrls.wrQLenPdf::30                      0                       # What write queue length does an incoming req see
system.mem_ctrls.wrQLenPdf::31                      0                       # What write queue length does an incoming req see
system.mem_ctrls.bytesPerActivate::samples       893051                       # Bytes accessed per row activation
system.mem_ctrls.bytesPerActivate::mean    149.584828                       # Bytes accessed per row activation
system.mem_ctrls.bytesPerActivate::gmean    89.497496                       # Bytes accessed per row activation
system.mem_ctrls.bytesPerActivate::stdev   423.292300                       # Bytes accessed per row activation
system.mem_ctrls.bytesPerActivate::64-65       669018     74.91%     74.91% # Bytes accessed per row activation
system.mem_ctrls.bytesPerActivate::128-129       100196     11.22%     86.13% # Bytes accessed per row activation
system.mem_ctrls.bytesPerActivate::192-193        33644      3.77%     89.90% # Bytes accessed per row activation
system.mem_ctrls.bytesPerActivate::256-257        20008      2.24%     92.14% # Bytes accessed per row activation
system.mem_ctrls.bytesPerActivate::320-321        12521      1.40%     93.54% # Bytes accessed per row activation
system.mem_ctrls.bytesPerActivate::384-385         9068      1.02%     94.56% # Bytes accessed per row activation
system.mem_ctrls.bytesPerActivate::448-449         6715      0.75%     95.31% # Bytes accessed per row activation
system.mem_ctrls.bytesPerActivate::512-513         6816      0.76%     96.07% # Bytes accessed per row activation
system.mem_ctrls.bytesPerActivate::576-577         3602      0.40%     96.48% # Bytes accessed per row activation
system.mem_ctrls.bytesPerActivate::640-641         2746      0.31%     96.78% # Bytes accessed per row activation
system.mem_ctrls.bytesPerActivate::704-705         2425      0.27%     97.06% # Bytes accessed per row activation
system.mem_ctrls.bytesPerActivate::768-769         2159      0.24%     97.30% # Bytes accessed per row activation
system.mem_ctrls.bytesPerActivate::832-833         1705      0.19%     97.49% # Bytes accessed per row activation
system.mem_ctrls.bytesPerActivate::896-897         1415      0.16%     97.65% # Bytes accessed per row activation
system.mem_ctrls.bytesPerActivate::960-961         1237      0.14%     97.79% # Bytes accessed per row activation
system.mem_ctrls.bytesPerActivate::1024-1025         1162      0.13%     97.92% # Bytes accessed per row activation
system.mem_ctrls.bytesPerActivate::1088-1089         1040      0.12%     98.03% # Bytes accessed per row activation
system.mem_ctrls.bytesPerActivate::1152-1153          935      0.10%     98.14% # Bytes accessed per row activation
system.mem_ctrls.bytesPerActivate::1216-1217          913      0.10%     98.24% # Bytes accessed per row activation
system.mem_ctrls.bytesPerActivate::1280-1281          872      0.10%     98.34% # Bytes accessed per row activation
system.mem_ctrls.bytesPerActivate::1344-1345          981      0.11%     98.45% # Bytes accessed per row activation
system.mem_ctrls.bytesPerActivate::1408-1409         1288      0.14%     98.59% # Bytes accessed per row activation
system.mem_ctrls.bytesPerActivate::1472-1473         5861      0.66%     99.25% # Bytes accessed per row activation
system.mem_ctrls.bytesPerActivate::1536-1537         1418      0.16%     99.41% # Bytes accessed per row activation
system.mem_ctrls.bytesPerActivate::1600-1601          842      0.09%     99.50% # Bytes accessed per row activation
system.mem_ctrls.bytesPerActivate::1664-1665          559      0.06%     99.56% # Bytes accessed per row activation
system.mem_ctrls.bytesPerActivate::1728-1729          333      0.04%     99.60% # Bytes accessed per row activation
system.mem_ctrls.bytesPerActivate::1792-1793          205      0.02%     99.62% # Bytes accessed per row activation
system.mem_ctrls.bytesPerActivate::1856-1857          163      0.02%     99.64% # Bytes accessed per row activation
system.mem_ctrls.bytesPerActivate::1920-1921          107      0.01%     99.65% # Bytes accessed per row activation
system.mem_ctrls.bytesPerActivate::1984-1985           90      0.01%     99.66% # Bytes accessed per row activation
system.mem_ctrls.bytesPerActivate::2048-2049          103      0.01%     99.67% # Bytes accessed per row activation
system.mem_ctrls.bytesPerActivate::2112-2113           75      0.01%     99.68% # Bytes accessed per row activation
system.mem_ctrls.bytesPerActivate::2176-2177           64      0.01%     99.69% # Bytes accessed per row activation
system.mem_ctrls.bytesPerActivate::2240-2241           65      0.01%     99.70% # Bytes accessed per row activation
system.mem_ctrls.bytesPerActivate::2304-2305           56      0.01%     99.70% # Bytes accessed per row activation
system.mem_ctrls.bytesPerActivate::2368-2369           47      0.01%     99.71% # Bytes accessed per row activation
system.mem_ctrls.bytesPerActivate::2432-2433           56      0.01%     99.72% # Bytes accessed per row activation
system.mem_ctrls.bytesPerActivate::2496-2497           50      0.01%     99.72% # Bytes accessed per row activation
system.mem_ctrls.bytesPerActivate::2560-2561           48      0.01%     99.73% # Bytes accessed per row activation
system.mem_ctrls.bytesPerActivate::2624-2625           39      0.00%     99.73% # Bytes accessed per row activation
system.mem_ctrls.bytesPerActivate::2688-2689           42      0.00%     99.74% # Bytes accessed per row activation
system.mem_ctrls.bytesPerActivate::2752-2753           35      0.00%     99.74% # Bytes accessed per row activation
system.mem_ctrls.bytesPerActivate::2816-2817           27      0.00%     99.74% # Bytes accessed per row activation
system.mem_ctrls.bytesPerActivate::2880-2881           24      0.00%     99.75% # Bytes accessed per row activation
system.mem_ctrls.bytesPerActivate::2944-2945           30      0.00%     99.75% # Bytes accessed per row activation
system.mem_ctrls.bytesPerActivate::3008-3009           39      0.00%     99.75% # Bytes accessed per row activation
system.mem_ctrls.bytesPerActivate::3072-3073           23      0.00%     99.76% # Bytes accessed per row activation
system.mem_ctrls.bytesPerActivate::3136-3137           21      0.00%     99.76% # Bytes accessed per row activation
system.mem_ctrls.bytesPerActivate::3200-3201           19      0.00%     99.76% # Bytes accessed per row activation
system.mem_ctrls.bytesPerActivate::3264-3265            5      0.00%     99.76% # Bytes accessed per row activation
system.mem_ctrls.bytesPerActivate::3328-3329           13      0.00%     99.76% # Bytes accessed per row activation
system.mem_ctrls.bytesPerActivate::3392-3393           13      0.00%     99.76% # Bytes accessed per row activation
system.mem_ctrls.bytesPerActivate::3456-3457           17      0.00%     99.77% # Bytes accessed per row activation
system.mem_ctrls.bytesPerActivate::3520-3521           20      0.00%     99.77% # Bytes accessed per row activation
system.mem_ctrls.bytesPerActivate::3584-3585           12      0.00%     99.77% # Bytes accessed per row activation
system.mem_ctrls.bytesPerActivate::3648-3649            9      0.00%     99.77% # Bytes accessed per row activation
system.mem_ctrls.bytesPerActivate::3712-3713           10      0.00%     99.77% # Bytes accessed per row activation
system.mem_ctrls.bytesPerActivate::3776-3777           18      0.00%     99.77% # Bytes accessed per row activation
system.mem_ctrls.bytesPerActivate::3840-3841           12      0.00%     99.77% # Bytes accessed per row activation
system.mem_ctrls.bytesPerActivate::3904-3905           13      0.00%     99.78% # Bytes accessed per row activation
system.mem_ctrls.bytesPerActivate::3968-3969           20      0.00%     99.78% # Bytes accessed per row activation
system.mem_ctrls.bytesPerActivate::4032-4033           14      0.00%     99.78% # Bytes accessed per row activation
system.mem_ctrls.bytesPerActivate::4096-4097           15      0.00%     99.78% # Bytes accessed per row activation
system.mem_ctrls.bytesPerActivate::4160-4161            8      0.00%     99.78% # Bytes accessed per row activation
system.mem_ctrls.bytesPerActivate::4224-4225            6      0.00%     99.78% # Bytes accessed per row activation
system.mem_ctrls.bytesPerActivate::4288-4289           11      0.00%     99.78% # Bytes accessed per row activation
system.mem_ctrls.bytesPerActivate::4352-4353           11      0.00%     99.79% # Bytes accessed per row activation
system.mem_ctrls.bytesPerActivate::4416-4417           19      0.00%     99.79% # Bytes accessed per row activation
system.mem_ctrls.bytesPerActivate::4480-4481            3      0.00%     99.79% # Bytes accessed per row activation
system.mem_ctrls.bytesPerActivate::4544-4545           10      0.00%     99.79% # Bytes accessed per row activation
system.mem_ctrls.bytesPerActivate::4608-4609           10      0.00%     99.79% # Bytes accessed per row activation
system.mem_ctrls.bytesPerActivate::4672-4673            8      0.00%     99.79% # Bytes accessed per row activation
system.mem_ctrls.bytesPerActivate::4736-4737           12      0.00%     99.79% # Bytes accessed per row activation
system.mem_ctrls.bytesPerActivate::4800-4801            8      0.00%     99.79% # Bytes accessed per row activation
system.mem_ctrls.bytesPerActivate::4864-4865           10      0.00%     99.79% # Bytes accessed per row activation
system.mem_ctrls.bytesPerActivate::4928-4929           11      0.00%     99.80% # Bytes accessed per row activation
system.mem_ctrls.bytesPerActivate::4992-4993            6      0.00%     99.80% # Bytes accessed per row activation
system.mem_ctrls.bytesPerActivate::5056-5057            3      0.00%     99.80% # Bytes accessed per row activation
system.mem_ctrls.bytesPerActivate::5120-5121           20      0.00%     99.80% # Bytes accessed per row activation
system.mem_ctrls.bytesPerActivate::5184-5185            7      0.00%     99.80% # Bytes accessed per row activation
system.mem_ctrls.bytesPerActivate::5248-5249           11      0.00%     99.80% # Bytes accessed per row activation
system.mem_ctrls.bytesPerActivate::5312-5313            9      0.00%     99.80% # Bytes accessed per row activation
system.mem_ctrls.bytesPerActivate::5376-5377           10      0.00%     99.80% # Bytes accessed per row activation
system.mem_ctrls.bytesPerActivate::5440-5441           10      0.00%     99.80% # Bytes accessed per row activation
system.mem_ctrls.bytesPerActivate::5504-5505            9      0.00%     99.81% # Bytes accessed per row activation
system.mem_ctrls.bytesPerActivate::5568-5569            7      0.00%     99.81% # Bytes accessed per row activation
system.mem_ctrls.bytesPerActivate::5632-5633           10      0.00%     99.81% # Bytes accessed per row activation
system.mem_ctrls.bytesPerActivate::5696-5697            3      0.00%     99.81% # Bytes accessed per row activation
system.mem_ctrls.bytesPerActivate::5760-5761            9      0.00%     99.81% # Bytes accessed per row activation
system.mem_ctrls.bytesPerActivate::5824-5825            7      0.00%     99.81% # Bytes accessed per row activation
system.mem_ctrls.bytesPerActivate::5888-5889            7      0.00%     99.81% # Bytes accessed per row activation
system.mem_ctrls.bytesPerActivate::5952-5953           10      0.00%     99.81% # Bytes accessed per row activation
system.mem_ctrls.bytesPerActivate::6016-6017            3      0.00%     99.81% # Bytes accessed per row activation
system.mem_ctrls.bytesPerActivate::6080-6081            3      0.00%     99.81% # Bytes accessed per row activation
system.mem_ctrls.bytesPerActivate::6144-6145            8      0.00%     99.81% # Bytes accessed per row activation
system.mem_ctrls.bytesPerActivate::6208-6209            5      0.00%     99.81% # Bytes accessed per row activation
system.mem_ctrls.bytesPerActivate::6272-6273            3      0.00%     99.81% # Bytes accessed per row activation
system.mem_ctrls.bytesPerActivate::6336-6337            1      0.00%     99.81% # Bytes accessed per row activation
system.mem_ctrls.bytesPerActivate::6400-6401            5      0.00%     99.81% # Bytes accessed per row activation
system.mem_ctrls.bytesPerActivate::6464-6465            7      0.00%     99.81% # Bytes accessed per row activation
system.mem_ctrls.bytesPerActivate::6528-6529            8      0.00%     99.82% # Bytes accessed per row activation
system.mem_ctrls.bytesPerActivate::6592-6593            5      0.00%     99.82% # Bytes accessed per row activation
system.mem_ctrls.bytesPerActivate::6656-6657            2      0.00%     99.82% # Bytes accessed per row activation
system.mem_ctrls.bytesPerActivate::6720-6721            7      0.00%     99.82% # Bytes accessed per row activation
system.mem_ctrls.bytesPerActivate::6784-6785            7      0.00%     99.82% # Bytes accessed per row activation
system.mem_ctrls.bytesPerActivate::6848-6849            3      0.00%     99.82% # Bytes accessed per row activation
system.mem_ctrls.bytesPerActivate::6912-6913            4      0.00%     99.82% # Bytes accessed per row activation
system.mem_ctrls.bytesPerActivate::6976-6977            2      0.00%     99.82% # Bytes accessed per row activation
system.mem_ctrls.bytesPerActivate::7040-7041            4      0.00%     99.82% # Bytes accessed per row activation
system.mem_ctrls.bytesPerActivate::7104-7105            5      0.00%     99.82% # Bytes accessed per row activation
system.mem_ctrls.bytesPerActivate::7168-7169            3      0.00%     99.82% # Bytes accessed per row activation
system.mem_ctrls.bytesPerActivate::7232-7233            7      0.00%     99.82% # Bytes accessed per row activation
system.mem_ctrls.bytesPerActivate::7296-7297            2      0.00%     99.82% # Bytes accessed per row activation
system.mem_ctrls.bytesPerActivate::7360-7361            6      0.00%     99.82% # Bytes accessed per row activation
system.mem_ctrls.bytesPerActivate::7424-7425            2      0.00%     99.82% # Bytes accessed per row activation
system.mem_ctrls.bytesPerActivate::7488-7489            4      0.00%     99.82% # Bytes accessed per row activation
system.mem_ctrls.bytesPerActivate::7552-7553            5      0.00%     99.82% # Bytes accessed per row activation
system.mem_ctrls.bytesPerActivate::7616-7617            4      0.00%     99.82% # Bytes accessed per row activation
system.mem_ctrls.bytesPerActivate::7680-7681            3      0.00%     99.82% # Bytes accessed per row activation
system.mem_ctrls.bytesPerActivate::7744-7745            2      0.00%     99.82% # Bytes accessed per row activation
system.mem_ctrls.bytesPerActivate::7808-7809            3      0.00%     99.82% # Bytes accessed per row activation
system.mem_ctrls.bytesPerActivate::7872-7873           13      0.00%     99.83% # Bytes accessed per row activation
system.mem_ctrls.bytesPerActivate::7936-7937           11      0.00%     99.83% # Bytes accessed per row activation
system.mem_ctrls.bytesPerActivate::8000-8001            5      0.00%     99.83% # Bytes accessed per row activation
system.mem_ctrls.bytesPerActivate::8064-8065           13      0.00%     99.83% # Bytes accessed per row activation
system.mem_ctrls.bytesPerActivate::8128-8129           15      0.00%     99.83% # Bytes accessed per row activation
system.mem_ctrls.bytesPerActivate::8192-8193         1497      0.17%    100.00% # Bytes accessed per row activation
system.mem_ctrls.bytesPerActivate::8256-8257            2      0.00%    100.00% # Bytes accessed per row activation
system.mem_ctrls.bytesPerActivate::8320-8321            1      0.00%    100.00% # Bytes accessed per row activation
system.mem_ctrls.bytesPerActivate::8384-8385            2      0.00%    100.00% # Bytes accessed per row activation
system.mem_ctrls.bytesPerActivate::8512-8513            1      0.00%    100.00% # Bytes accessed per row activation
system.mem_ctrls.bytesPerActivate::8640-8641            1      0.00%    100.00% # Bytes accessed per row activation
system.mem_ctrls.bytesPerActivate::8768-8769            1      0.00%    100.00% # Bytes accessed per row activation
system.mem_ctrls.bytesPerActivate::9216-9217            1      0.00%    100.00% # Bytes accessed per row activation
system.mem_ctrls.bytesPerActivate::9408-9409            2      0.00%    100.00% # Bytes accessed per row activation
system.mem_ctrls.bytesPerActivate::total       893051                       # Bytes accessed per row activation
system.mem_ctrls.totQLat                  19163335500                       # Total cycles spent in queuing delays
system.mem_ctrls.totMemAccLat             52680480500                       # Sum of mem lat for all requests
system.mem_ctrls.totBusLat                 6117465000                       # Total cycles spent in databus access
system.mem_ctrls.totBankLat               27399680000                       # Total cycles spent in bank access
system.mem_ctrls.avgQLat                     15662.81                       # Average queueing delay per request
system.mem_ctrls.avgBankLat                  22394.64                       # Average bank access latency per request
system.mem_ctrls.avgBusLat                    5000.00                       # Average bus latency per request
system.mem_ctrls.avgMemAccLat                43057.44                       # Average memory access latency
system.mem_ctrls.avgRdBW                       125.77                       # Average achieved read bandwidth in MB/s
system.mem_ctrls.avgWrBW                        88.83                       # Average achieved write bandwidth in MB/s
system.mem_ctrls.avgConsumedRdBW               125.77                       # Average consumed read bandwidth in MB/s
system.mem_ctrls.avgConsumedWrBW                88.83                       # Average consumed write bandwidth in MB/s
system.mem_ctrls.peakBW                      12800.00                       # Theoretical peak bandwidth in MB/s
system.mem_ctrls.busUtil                         1.68                       # Data bus utilization in percentage
system.mem_ctrls.avgRdQLen                       0.08                       # Average read queue length over time
system.mem_ctrls.avgWrQLen                      10.69                       # Average write queue length over time
system.mem_ctrls.readRowHits                   800315                       # Number of row buffer hits during reads
system.mem_ctrls.writeRowHits                  394743                       # Number of row buffer hits during writes
system.mem_ctrls.readRowHitRate                 65.41                       # Row buffer hit rate for reads
system.mem_ctrls.writeRowHitRate                45.65                       # Row buffer hit rate for writes
system.mem_ctrls.avgGap                     296960.72                       # Average gap between requests
system.membus.throughput                    214602753                       # Throughput (bytes/s)
system.membus.trans_dist::ReadReq              613338                       # Transaction distribution
system.membus.trans_dist::ReadResp             613338                       # Transaction distribution
system.membus.trans_dist::Writeback            864629                       # Transaction distribution
system.membus.trans_dist::ReadExReq            610874                       # Transaction distribution
system.membus.trans_dist::ReadExResp           610874                       # Transaction distribution
system.membus.pkt_count_system.l2.mem_side::system.mem_ctrls.port      3313053                       # Packet count per connected master and slave (bytes)
system.membus.pkt_count::total                3313053                       # Packet count per connected master and slave (bytes)
system.membus.tot_pkt_size_system.l2.mem_side::system.mem_ctrls.port    133685824                       # Cumulative packet size per connected master and slave (bytes)
system.membus.tot_pkt_size::total           133685824                       # Cumulative packet size per connected master and slave (bytes)
system.membus.data_through_bus              133685824                       # Total data (bytes)
system.membus.snoop_data_through_bus                0                       # Total snoop data (bytes)
system.membus.reqLayer0.occupancy          4502936500                       # Layer occupancy (ticks)
system.membus.reqLayer0.utilization               0.7                       # Layer utilization (%)
system.membus.respLayer1.occupancy         5806234250                       # Layer occupancy (ticks)
system.membus.respLayer1.utilization              0.9                       # Layer utilization (%)
system.switch_cpus.branchPred.lookups       341022309                       # Number of BP lookups
system.switch_cpus.branchPred.condPredicted    287897514                       # Number of conditional branches predicted
system.switch_cpus.branchPred.condIncorrect     16048402                       # Number of conditional branches incorrect
system.switch_cpus.branchPred.BTBLookups    184698007                       # Number of BTB lookups
system.switch_cpus.branchPred.BTBHits       183020113                       # Number of BTB hits
system.switch_cpus.branchPred.BTBCorrect            0                       # Number of correct BTB predictions (this stat may not work properly.
system.switch_cpus.branchPred.BTBHitPct     99.091547                       # BTB Hit Percentage
system.switch_cpus.branchPred.usedRAS        12470863                       # Number of times the RAS was used to get a target.
system.switch_cpus.branchPred.RASInCorrect           39                       # Number of incorrect RAS predictions.
system.switch_cpus.dtb.fetch_hits                   0                       # ITB hits
system.switch_cpus.dtb.fetch_misses                 0                       # ITB misses
system.switch_cpus.dtb.fetch_acv                    0                       # ITB acv
system.switch_cpus.dtb.fetch_accesses               0                       # ITB accesses
system.switch_cpus.dtb.read_hits            691143018                       # DTB read hits
system.switch_cpus.dtb.read_misses            7527099                       # DTB read misses
system.switch_cpus.dtb.read_acv                     0                       # DTB read access violations
system.switch_cpus.dtb.read_accesses        698670117                       # DTB read accesses
system.switch_cpus.dtb.write_hits           181975572                       # DTB write hits
system.switch_cpus.dtb.write_misses           8429786                       # DTB write misses
system.switch_cpus.dtb.write_acv                    0                       # DTB write access violations
system.switch_cpus.dtb.write_accesses       190405358                       # DTB write accesses
system.switch_cpus.dtb.data_hits            873118590                       # DTB hits
system.switch_cpus.dtb.data_misses           15956885                       # DTB misses
system.switch_cpus.dtb.data_acv                     0                       # DTB access violations
system.switch_cpus.dtb.data_accesses        889075475                       # DTB accesses
system.switch_cpus.itb.fetch_hits           349765210                       # ITB hits
system.switch_cpus.itb.fetch_misses              9562                       # ITB misses
system.switch_cpus.itb.fetch_acv                    0                       # ITB acv
system.switch_cpus.itb.fetch_accesses       349774772                       # ITB accesses
system.switch_cpus.itb.read_hits                    0                       # DTB read hits
system.switch_cpus.itb.read_misses                  0                       # DTB read misses
system.switch_cpus.itb.read_acv                     0                       # DTB read access violations
system.switch_cpus.itb.read_accesses                0                       # DTB read accesses
system.switch_cpus.itb.write_hits                   0                       # DTB write hits
system.switch_cpus.itb.write_misses                 0                       # DTB write misses
system.switch_cpus.itb.write_acv                    0                       # DTB write access violations
system.switch_cpus.itb.write_accesses               0                       # DTB write accesses
system.switch_cpus.itb.data_hits                    0                       # DTB hits
system.switch_cpus.itb.data_misses                  0                       # DTB misses
system.switch_cpus.itb.data_acv                     0                       # DTB access violations
system.switch_cpus.itb.data_accesses                0                       # DTB accesses
system.cpu.workload.num_syscalls                    0                       # Number of system calls
system.switch_cpus.numCycles               1245891043                       # number of cpu cycles simulated
system.switch_cpus.numWorkItemsStarted              0                       # number of work items this cpu started
system.switch_cpus.numWorkItemsCompleted            0                       # number of work items this cpu completed
system.switch_cpus.fetch.icacheStallCycles    361776677                       # Number of cycles fetch is stalled on an Icache miss
system.switch_cpus.fetch.Insts             3272085252                       # Number of instructions fetch has processed
system.switch_cpus.fetch.Branches           341022309                       # Number of branches that fetch encountered
system.switch_cpus.fetch.predictedBranches    195490976                       # Number of branches that fetch has predicted taken
system.switch_cpus.fetch.Cycles             541784306                       # Number of cycles fetch has run and was not squashing or blocked
system.switch_cpus.fetch.SquashCycles       133354526                       # Number of cycles fetch has spent squashing
system.switch_cpus.fetch.BlockedCycles      207000098                       # Number of cycles fetch has spent blocked
system.switch_cpus.fetch.MiscStallCycles          117                       # Number of cycles fetch has spent waiting on interrupts, or bad addresses, or out of MSHRs
system.switch_cpus.fetch.PendingTrapStallCycles        29724                       # Number of stall cycles due to pending traps
system.switch_cpus.fetch.CacheLines         349765210                       # Number of cache lines fetched
system.switch_cpus.fetch.IcacheSquashes       6336021                       # Number of outstanding Icache misses that were squashed
system.switch_cpus.fetch.rateDist::samples   1222104881                       # Number of instructions fetched each cycle (Total)
system.switch_cpus.fetch.rateDist::mean      2.677418                       # Number of instructions fetched each cycle (Total)
system.switch_cpus.fetch.rateDist::stdev     3.396723                       # Number of instructions fetched each cycle (Total)
system.switch_cpus.fetch.rateDist::underflows            0      0.00%      0.00% # Number of instructions fetched each cycle (Total)
system.switch_cpus.fetch.rateDist::0        680320575     55.67%     55.67% # Number of instructions fetched each cycle (Total)
system.switch_cpus.fetch.rateDist::1         41489219      3.39%     59.06% # Number of instructions fetched each cycle (Total)
system.switch_cpus.fetch.rateDist::2         23547487      1.93%     60.99% # Number of instructions fetched each cycle (Total)
system.switch_cpus.fetch.rateDist::3         29695273      2.43%     63.42% # Number of instructions fetched each cycle (Total)
system.switch_cpus.fetch.rateDist::4         64771280      5.30%     68.72% # Number of instructions fetched each cycle (Total)
system.switch_cpus.fetch.rateDist::5         37826656      3.10%     71.81% # Number of instructions fetched each cycle (Total)
system.switch_cpus.fetch.rateDist::6         36299239      2.97%     74.78% # Number of instructions fetched each cycle (Total)
system.switch_cpus.fetch.rateDist::7         36839810      3.01%     77.80% # Number of instructions fetched each cycle (Total)
system.switch_cpus.fetch.rateDist::8        271315342     22.20%    100.00% # Number of instructions fetched each cycle (Total)
system.switch_cpus.fetch.rateDist::overflows            0      0.00%    100.00% # Number of instructions fetched each cycle (Total)
system.switch_cpus.fetch.rateDist::min_value            0                       # Number of instructions fetched each cycle (Total)
system.switch_cpus.fetch.rateDist::max_value            8                       # Number of instructions fetched each cycle (Total)
system.switch_cpus.fetch.rateDist::total   1222104881                       # Number of instructions fetched each cycle (Total)
system.switch_cpus.fetch.branchRate          0.273718                       # Number of branch fetches per cycle
system.switch_cpus.fetch.rate                2.626301                       # Number of inst fetches per cycle
system.switch_cpus.decode.IdleCycles        401289930                       # Number of cycles decode is idle
system.switch_cpus.decode.BlockedCycles     179839226                       # Number of cycles decode is blocked
system.switch_cpus.decode.RunCycles         501372153                       # Number of cycles decode is running
system.switch_cpus.decode.UnblockCycles      28089817                       # Number of cycles decode is unblocking
system.switch_cpus.decode.SquashCycles      111513754                       # Number of cycles decode is squashing
system.switch_cpus.decode.BranchResolved     39717287                       # Number of times decode resolved a branch
system.switch_cpus.decode.BranchMispred           222                       # Number of times decode detected a branch misprediction
system.switch_cpus.decode.DecodedInsts     3198402101                       # Number of instructions handled by decode
system.switch_cpus.decode.SquashedInsts           704                       # Number of squashed instructions handled by decode
system.switch_cpus.rename.SquashCycles      111513754                       # Number of cycles rename is squashing
system.switch_cpus.rename.IdleCycles        427223880                       # Number of cycles rename is idle
system.switch_cpus.rename.BlockCycles        98519947                       # Number of cycles rename is blocking
system.switch_cpus.rename.serializeStallCycles         4253                       # count of cycles rename stalled for serializing inst
system.switch_cpus.rename.RunCycles         502344947                       # Number of cycles rename is running
system.switch_cpus.rename.UnblockCycles      82498099                       # Number of cycles rename is unblocking
system.switch_cpus.rename.RenamedInsts     3120102475                       # Number of instructions processed by rename
system.switch_cpus.rename.ROBFullEvents         65099                       # Number of times rename has blocked due to ROB full
system.switch_cpus.rename.IQFullEvents        8484208                       # Number of times rename has blocked due to IQ full
system.switch_cpus.rename.LSQFullEvents      64575853                       # Number of times rename has blocked due to LSQ full
system.switch_cpus.rename.RenamedOperands   2543685612                       # Number of destination operands rename has renamed
system.switch_cpus.rename.RenameLookups    4284379205                       # Number of register rename lookups that rename has made
system.switch_cpus.rename.int_rename_lookups   4284358391                       # Number of integer rename lookups
system.switch_cpus.rename.fp_rename_lookups        20814                       # Number of floating rename lookups
system.switch_cpus.rename.CommittedMaps    1642742419                       # Number of HB maps that are committed
system.switch_cpus.rename.UndoneMaps        900943159                       # Number of HB maps that are undone due to squashing
system.switch_cpus.rename.serializingInsts          195                       # count of serializing insts renamed
system.switch_cpus.rename.tempSerializingInsts            0                       # count of temporary serializing insts renamed
system.switch_cpus.rename.skidInsts         213436480                       # count of insts added to the skid buffer
system.switch_cpus.memDep0.insertedLoads    763045238                       # Number of loads inserted to the mem dependence unit.
system.switch_cpus.memDep0.insertedStores    244962559                       # Number of stores inserted to the mem dependence unit.
system.switch_cpus.memDep0.conflictingLoads     99780128                       # Number of conflicting loads.
system.switch_cpus.memDep0.conflictingStores     64341173                       # Number of conflicting stores.
system.switch_cpus.iq.iqInstsAdded         2990062476                       # Number of instructions added to the IQ (excludes non-spec)
system.switch_cpus.iq.iqInstsIssued        2716436001                       # Number of instructions issued
system.switch_cpus.iq.iqSquashedInstsIssued      5641272                       # Number of squashed instructions issued
system.switch_cpus.iq.iqSquashedInstsExamined    985830147                       # Number of squashed instructions iterated over during squash; mainly for profiling
system.switch_cpus.iq.iqSquashedOperandsExamined    512091557                       # Number of squashed operands that are examined and possibly removed from graph
system.switch_cpus.iq.issued_per_cycle::samples   1222104881                       # Number of insts issued each cycle
system.switch_cpus.iq.issued_per_cycle::mean     2.222752                       # Number of insts issued each cycle
system.switch_cpus.iq.issued_per_cycle::stdev     2.053935                       # Number of insts issued each cycle
system.switch_cpus.iq.issued_per_cycle::underflows            0      0.00%      0.00% # Number of insts issued each cycle
system.switch_cpus.iq.issued_per_cycle::0    378770937     30.99%     30.99% # Number of insts issued each cycle
system.switch_cpus.iq.issued_per_cycle::1    157956602     12.92%     43.92% # Number of insts issued each cycle
system.switch_cpus.iq.issued_per_cycle::2    171748768     14.05%     57.97% # Number of insts issued each cycle
system.switch_cpus.iq.issued_per_cycle::3    176268174     14.42%     72.40% # Number of insts issued each cycle
system.switch_cpus.iq.issued_per_cycle::4    131057100     10.72%     83.12% # Number of insts issued each cycle
system.switch_cpus.iq.issued_per_cycle::5    107814478      8.82%     91.94% # Number of insts issued each cycle
system.switch_cpus.iq.issued_per_cycle::6     71089777      5.82%     97.76% # Number of insts issued each cycle
system.switch_cpus.iq.issued_per_cycle::7     22854471      1.87%     99.63% # Number of insts issued each cycle
system.switch_cpus.iq.issued_per_cycle::8      4544574      0.37%    100.00% # Number of insts issued each cycle
system.switch_cpus.iq.issued_per_cycle::overflows            0      0.00%    100.00% # Number of insts issued each cycle
system.switch_cpus.iq.issued_per_cycle::min_value            0                       # Number of insts issued each cycle
system.switch_cpus.iq.issued_per_cycle::max_value            8                       # Number of insts issued each cycle
system.switch_cpus.iq.issued_per_cycle::total   1222104881                       # Number of insts issued each cycle
system.switch_cpus.iq.fu_full::No_OpClass            0      0.00%      0.00% # attempts to use FU when none available
system.switch_cpus.iq.fu_full::IntAlu         2546936     22.52%     22.52% # attempts to use FU when none available
system.switch_cpus.iq.fu_full::IntMult              0      0.00%     22.52% # attempts to use FU when none available
system.switch_cpus.iq.fu_full::IntDiv               0      0.00%     22.52% # attempts to use FU when none available
system.switch_cpus.iq.fu_full::FloatAdd             0      0.00%     22.52% # attempts to use FU when none available
system.switch_cpus.iq.fu_full::FloatCmp             0      0.00%     22.52% # attempts to use FU when none available
system.switch_cpus.iq.fu_full::FloatCvt             0      0.00%     22.52% # attempts to use FU when none available
system.switch_cpus.iq.fu_full::FloatMult            0      0.00%     22.52% # attempts to use FU when none available
system.switch_cpus.iq.fu_full::FloatDiv             0      0.00%     22.52% # attempts to use FU when none available
system.switch_cpus.iq.fu_full::FloatSqrt            0      0.00%     22.52% # attempts to use FU when none available
system.switch_cpus.iq.fu_full::SimdAdd              0      0.00%     22.52% # attempts to use FU when none available
system.switch_cpus.iq.fu_full::SimdAddAcc            0      0.00%     22.52% # attempts to use FU when none available
system.switch_cpus.iq.fu_full::SimdAlu              0      0.00%     22.52% # attempts to use FU when none available
system.switch_cpus.iq.fu_full::SimdCmp              0      0.00%     22.52% # attempts to use FU when none available
system.switch_cpus.iq.fu_full::SimdCvt              0      0.00%     22.52% # attempts to use FU when none available
system.switch_cpus.iq.fu_full::SimdMisc             0      0.00%     22.52% # attempts to use FU when none available
system.switch_cpus.iq.fu_full::SimdMult             0      0.00%     22.52% # attempts to use FU when none available
system.switch_cpus.iq.fu_full::SimdMultAcc            0      0.00%     22.52% # attempts to use FU when none available
system.switch_cpus.iq.fu_full::SimdShift            0      0.00%     22.52% # attempts to use FU when none available
system.switch_cpus.iq.fu_full::SimdShiftAcc            0      0.00%     22.52% # attempts to use FU when none available
system.switch_cpus.iq.fu_full::SimdSqrt             0      0.00%     22.52% # attempts to use FU when none available
system.switch_cpus.iq.fu_full::SimdFloatAdd            0      0.00%     22.52% # attempts to use FU when none available
system.switch_cpus.iq.fu_full::SimdFloatAlu            0      0.00%     22.52% # attempts to use FU when none available
system.switch_cpus.iq.fu_full::SimdFloatCmp            0      0.00%     22.52% # attempts to use FU when none available
system.switch_cpus.iq.fu_full::SimdFloatCvt            0      0.00%     22.52% # attempts to use FU when none available
system.switch_cpus.iq.fu_full::SimdFloatDiv            0      0.00%     22.52% # attempts to use FU when none available
system.switch_cpus.iq.fu_full::SimdFloatMisc            0      0.00%     22.52% # attempts to use FU when none available
system.switch_cpus.iq.fu_full::SimdFloatMult            0      0.00%     22.52% # attempts to use FU when none available
system.switch_cpus.iq.fu_full::SimdFloatMultAcc            0      0.00%     22.52% # attempts to use FU when none available
system.switch_cpus.iq.fu_full::SimdFloatSqrt            0      0.00%     22.52% # attempts to use FU when none available
system.switch_cpus.iq.fu_full::MemRead        8285649     73.27%     95.80% # attempts to use FU when none available
system.switch_cpus.iq.fu_full::MemWrite        475263      4.20%    100.00% # attempts to use FU when none available
system.switch_cpus.iq.fu_full::IprAccess            0      0.00%    100.00% # attempts to use FU when none available
system.switch_cpus.iq.fu_full::InstPrefetch            0      0.00%    100.00% # attempts to use FU when none available
system.switch_cpus.iq.FU_type_0::No_OpClass           84      0.00%      0.00% # Type of FU issued
system.switch_cpus.iq.FU_type_0::IntAlu    1805278524     66.46%     66.46% # Type of FU issued
system.switch_cpus.iq.FU_type_0::IntMult         1291      0.00%     66.46% # Type of FU issued
system.switch_cpus.iq.FU_type_0::IntDiv             0      0.00%     66.46% # Type of FU issued
system.switch_cpus.iq.FU_type_0::FloatAdd          337      0.00%     66.46% # Type of FU issued
system.switch_cpus.iq.FU_type_0::FloatCmp            0      0.00%     66.46% # Type of FU issued
system.switch_cpus.iq.FU_type_0::FloatCvt          436      0.00%     66.46% # Type of FU issued
system.switch_cpus.iq.FU_type_0::FloatMult            8      0.00%     66.46% # Type of FU issued
system.switch_cpus.iq.FU_type_0::FloatDiv           48      0.00%     66.46% # Type of FU issued
system.switch_cpus.iq.FU_type_0::FloatSqrt            0      0.00%     66.46% # Type of FU issued
system.switch_cpus.iq.FU_type_0::SimdAdd            0      0.00%     66.46% # Type of FU issued
system.switch_cpus.iq.FU_type_0::SimdAddAcc            0      0.00%     66.46% # Type of FU issued
system.switch_cpus.iq.FU_type_0::SimdAlu            0      0.00%     66.46% # Type of FU issued
system.switch_cpus.iq.FU_type_0::SimdCmp            0      0.00%     66.46% # Type of FU issued
system.switch_cpus.iq.FU_type_0::SimdCvt            0      0.00%     66.46% # Type of FU issued
system.switch_cpus.iq.FU_type_0::SimdMisc            0      0.00%     66.46% # Type of FU issued
system.switch_cpus.iq.FU_type_0::SimdMult            0      0.00%     66.46% # Type of FU issued
system.switch_cpus.iq.FU_type_0::SimdMultAcc            0      0.00%     66.46% # Type of FU issued
system.switch_cpus.iq.FU_type_0::SimdShift            0      0.00%     66.46% # Type of FU issued
system.switch_cpus.iq.FU_type_0::SimdShiftAcc            0      0.00%     66.46% # Type of FU issued
system.switch_cpus.iq.FU_type_0::SimdSqrt            0      0.00%     66.46% # Type of FU issued
system.switch_cpus.iq.FU_type_0::SimdFloatAdd            0      0.00%     66.46% # Type of FU issued
system.switch_cpus.iq.FU_type_0::SimdFloatAlu            0      0.00%     66.46% # Type of FU issued
system.switch_cpus.iq.FU_type_0::SimdFloatCmp            0      0.00%     66.46% # Type of FU issued
system.switch_cpus.iq.FU_type_0::SimdFloatCvt            0      0.00%     66.46% # Type of FU issued
system.switch_cpus.iq.FU_type_0::SimdFloatDiv            0      0.00%     66.46% # Type of FU issued
system.switch_cpus.iq.FU_type_0::SimdFloatMisc            0      0.00%     66.46% # Type of FU issued
system.switch_cpus.iq.FU_type_0::SimdFloatMult            0      0.00%     66.46% # Type of FU issued
system.switch_cpus.iq.FU_type_0::SimdFloatMultAcc            0      0.00%     66.46% # Type of FU issued
system.switch_cpus.iq.FU_type_0::SimdFloatSqrt            0      0.00%     66.46% # Type of FU issued
system.switch_cpus.iq.FU_type_0::MemRead    716744010     26.39%     92.84% # Type of FU issued
system.switch_cpus.iq.FU_type_0::MemWrite    194411263      7.16%    100.00% # Type of FU issued
system.switch_cpus.iq.FU_type_0::IprAccess            0      0.00%    100.00% # Type of FU issued
system.switch_cpus.iq.FU_type_0::InstPrefetch            0      0.00%    100.00% # Type of FU issued
system.switch_cpus.iq.FU_type_0::total     2716436001                       # Type of FU issued
system.switch_cpus.iq.rate                   2.180316                       # Inst issue rate
system.switch_cpus.iq.fu_busy_cnt            11307848                       # FU busy when requested
system.switch_cpus.iq.fu_busy_rate           0.004163                       # FU busy rate (busy events/executed inst)
system.switch_cpus.iq.int_inst_queue_reads   6671914084                       # Number of integer instruction queue reads
system.switch_cpus.iq.int_inst_queue_writes   3975922136                       # Number of integer instruction queue writes
system.switch_cpus.iq.int_inst_queue_wakeup_accesses   2621206845                       # Number of integer instruction queue wakeup accesses
system.switch_cpus.iq.fp_inst_queue_reads        11914                       # Number of floating instruction queue reads
system.switch_cpus.iq.fp_inst_queue_writes        14972                       # Number of floating instruction queue writes
system.switch_cpus.iq.fp_inst_queue_wakeup_accesses         4233                       # Number of floating instruction queue wakeup accesses
system.switch_cpus.iq.int_alu_accesses     2727737413                       # Number of integer alu accesses
system.switch_cpus.iq.fp_alu_accesses            6352                       # Number of floating point alu accesses
system.switch_cpus.iew.lsq.thread0.forwLoads     51875528                       # Number of loads that had data forwarded from stores
system.switch_cpus.iew.lsq.thread0.invAddrLoads            0                       # Number of loads ignored due to an invalid address
system.switch_cpus.iew.lsq.thread0.squashedLoads    246203216                       # Number of loads squashed
system.switch_cpus.iew.lsq.thread0.ignoredResponses       139531                       # Number of memory responses ignored because the instruction is squashed
system.switch_cpus.iew.lsq.thread0.memOrderViolation        45735                       # Number of memory ordering violations
system.switch_cpus.iew.lsq.thread0.squashedStores     90061904                       # Number of stores squashed
system.switch_cpus.iew.lsq.thread0.invAddrSwpfs            0                       # Number of software prefetches ignored due to an invalid address
system.switch_cpus.iew.lsq.thread0.blockedLoads            0                       # Number of blocked loads due to partial load-store forwarding
system.switch_cpus.iew.lsq.thread0.rescheduledLoads          704                       # Number of loads that were rescheduled
system.switch_cpus.iew.lsq.thread0.cacheBlocked       717267                       # Number of times an access to memory failed due to the cache being blocked
system.switch_cpus.iew.iewIdleCycles                0                       # Number of cycles IEW is idle
system.switch_cpus.iew.iewSquashCycles      111513754                       # Number of cycles IEW is squashing
system.switch_cpus.iew.iewBlockCycles        68196403                       # Number of cycles IEW is blocking
system.switch_cpus.iew.iewUnblockCycles        665301                       # Number of cycles IEW is unblocking
system.switch_cpus.iew.iewDispatchedInsts   2995612072                       # Number of instructions dispatched to IQ
system.switch_cpus.iew.iewDispSquashedInsts     12420227                       # Number of squashed instructions skipped by dispatch
system.switch_cpus.iew.iewDispLoadInsts     763045238                       # Number of dispatched load instructions
system.switch_cpus.iew.iewDispStoreInsts    244962559                       # Number of dispatched store instructions
system.switch_cpus.iew.iewDispNonSpecInsts            0                       # Number of dispatched non-speculative instructions
system.switch_cpus.iew.iewIQFullEvents         299251                       # Number of times the IQ has become full, causing a stall
system.switch_cpus.iew.iewLSQFullEvents          9241                       # Number of times the LSQ has become full, causing a stall
system.switch_cpus.iew.memOrderViolationEvents        45735                       # Number of memory order violations
system.switch_cpus.iew.predictedTakenIncorrect      8636117                       # Number of branches that were predicted taken incorrectly
system.switch_cpus.iew.predictedNotTakenIncorrect     10301449                       # Number of branches that were predicted not taken incorrectly
system.switch_cpus.iew.branchMispredicts     18937566                       # Number of branch mispredicts detected at execute
system.switch_cpus.iew.iewExecutedInsts    2673166714                       # Number of executed instructions
system.switch_cpus.iew.iewExecLoadInsts     698670168                       # Number of load instructions executed
system.switch_cpus.iew.iewExecSquashedInsts     43269282                       # Number of squashed instructions skipped in execute
system.switch_cpus.iew.exec_swp                     0                       # number of swp insts executed
system.switch_cpus.iew.exec_nop               5549596                       # number of nop insts executed
system.switch_cpus.iew.exec_refs            889075543                       # number of memory reference insts executed
system.switch_cpus.iew.exec_branches        265110907                       # Number of branches executed
system.switch_cpus.iew.exec_stores          190405375                       # Number of stores executed
system.switch_cpus.iew.exec_rate             2.145586                       # Inst execution rate
system.switch_cpus.iew.wb_sent             2648767251                       # cumulative count of insts sent to commit
system.switch_cpus.iew.wb_count            2621211078                       # cumulative count of insts written-back
system.switch_cpus.iew.wb_producers        1780521704                       # num instructions producing a value
system.switch_cpus.iew.wb_consumers        2256090875                       # num instructions consuming a value
system.switch_cpus.iew.wb_penalized                 0                       # number of instrctions required to write to 'other' IQ
system.switch_cpus.iew.wb_rate               2.103885                       # insts written-back per cycle
system.switch_cpus.iew.wb_fanout             0.789207                       # average fanout of values written-back
system.switch_cpus.iew.wb_penalized_rate            0                       # fraction of instructions written-back that wrote to 'other' IQ
system.switch_cpus.commit.commitSquashedInsts    815604337                       # The number of squashed insts skipped by commit
system.switch_cpus.commit.branchMispredicts     16048197                       # The number of times a branch was mispredicted
system.switch_cpus.commit.committed_per_cycle::samples   1110591127                       # Number of insts commited each cycle
system.switch_cpus.commit.committed_per_cycle::mean     1.805148                       # Number of insts commited each cycle
system.switch_cpus.commit.committed_per_cycle::stdev     2.642308                       # Number of insts commited each cycle
system.switch_cpus.commit.committed_per_cycle::underflows            0      0.00%      0.00% # Number of insts commited each cycle
system.switch_cpus.commit.committed_per_cycle::0    544481378     49.03%     49.03% # Number of insts commited each cycle
system.switch_cpus.commit.committed_per_cycle::1    187234723     16.86%     65.89% # Number of insts commited each cycle
system.switch_cpus.commit.committed_per_cycle::2    111203005     10.01%     75.90% # Number of insts commited each cycle
system.switch_cpus.commit.committed_per_cycle::3     68138627      6.14%     82.03% # Number of insts commited each cycle
system.switch_cpus.commit.committed_per_cycle::4     25415748      2.29%     84.32% # Number of insts commited each cycle
system.switch_cpus.commit.committed_per_cycle::5     16065562      1.45%     85.77% # Number of insts commited each cycle
system.switch_cpus.commit.committed_per_cycle::6     19583850      1.76%     87.53% # Number of insts commited each cycle
system.switch_cpus.commit.committed_per_cycle::7     16515036      1.49%     89.02% # Number of insts commited each cycle
system.switch_cpus.commit.committed_per_cycle::8    121953198     10.98%    100.00% # Number of insts commited each cycle
system.switch_cpus.commit.committed_per_cycle::overflows            0      0.00%    100.00% # Number of insts commited each cycle
system.switch_cpus.commit.committed_per_cycle::min_value            0                       # Number of insts commited each cycle
system.switch_cpus.commit.committed_per_cycle::max_value            8                       # Number of insts commited each cycle
system.switch_cpus.commit.committed_per_cycle::total   1110591127                       # Number of insts commited each cycle
system.switch_cpus.commit.committedInsts   2004781352                       # Number of instructions committed
system.switch_cpus.commit.committedOps     2004781352                       # Number of ops (including micro ops) committed
system.switch_cpus.commit.swp_count                 0                       # Number of s/w prefetches committed
system.switch_cpus.commit.refs              671742670                       # Number of memory references committed
system.switch_cpus.commit.loads             516842016                       # Number of loads committed
system.switch_cpus.commit.membars                   0                       # Number of memory barriers committed
system.switch_cpus.commit.branches          210045741                       # Number of branches committed
system.switch_cpus.commit.fp_insts                650                       # Number of committed floating point instructions.
system.switch_cpus.commit.int_insts        1984437640                       # Number of committed integer instructions.
system.switch_cpus.commit.function_calls      7766450                       # Number of function calls committed.
system.switch_cpus.commit.bw_lim_events     121953198                       # number cycles where commit BW limit reached
system.switch_cpus.commit.bw_limited                0                       # number of insts not committed due to BW limits
system.switch_cpus.rob.rob_reads           3739534250                       # The number of ROB reads
system.switch_cpus.rob.rob_writes          5752435179                       # The number of ROB writes
system.switch_cpus.timesIdled                  389162                       # Number of times that the entire CPU went into an idle state and unscheduled itself
system.switch_cpus.idleCycles                23786162                       # Total number of cycles that the CPU has spent unscheduled due to idling
system.switch_cpus.committedInsts          2000000004                       # Number of Instructions Simulated
system.switch_cpus.committedOps            2000000004                       # Number of Ops (including micro ops) Simulated
system.switch_cpus.committedInsts_total    2000000004                       # Number of Instructions Simulated
system.switch_cpus.cpi                       0.622946                       # CPI: Cycles Per Instruction
system.switch_cpus.cpi_total                 0.622946                       # CPI: Total CPI of All Threads
system.switch_cpus.ipc                       1.605277                       # IPC: Instructions Per Cycle
system.switch_cpus.ipc_total                 1.605277                       # IPC: Total IPC of All Threads
system.switch_cpus.int_regfile_reads       3633514004                       # number of integer regfile reads
system.switch_cpus.int_regfile_writes      2194448997                       # number of integer regfile writes
system.switch_cpus.fp_regfile_reads              4180                       # number of floating regfile reads
system.switch_cpus.fp_regfile_writes              665                       # number of floating regfile writes
system.switch_cpus.misc_regfile_reads              84                       # number of misc regfile reads
system.switch_cpus.misc_regfile_writes             42                       # number of misc regfile writes
system.l2.tags.numFaultyBlocks_VDD1               250                       # number of faulty blocks in the cache at VDD1 (lowest)
system.l2.tags.numFaultyBlocks_VDD2               250                       # number of faulty blocks in the cache at VDD2 (mid)
system.l2.tags.numFaultyBlocks_VDD3                 0                       # number of faulty blocks in the cache at VDD3 (highest)
system.l2.tags.blockFaultRate_VDD1           0.007629                       # Proportion of faulty blocks in the cache at VDD1
system.l2.tags.blockFaultRate_VDD2           0.007629                       # Proportion of faulty blocks in the cache at VDD2
system.l2.tags.blockFaultRate_VDD3                  0                       # Proportion of faulty blocks in the cache at VDD3
system.l2.tags.cycles_VDD1                          0                       # Total number of cycles spent on VDD1
system.l2.tags.cycles_VDD2                 2248024816                       # Total number of cycles spent on VDD2
system.l2.tags.cycles_VDD3                          0                       # Total number of cycles spent on VDD3
system.l2.tags.accessEnergy_VDD1                    0                       # Total dynamic energy dissipated at VDD1 in nJ
system.l2.tags.accessEnergy_VDD2         4192827.955955                       # Total dynamic energy dissipated at VDD2 in nJ
system.l2.tags.accessEnergy_VDD3                    0                       # Total dynamic energy dissipated at VDD3 in nJ
system.l2.tags.accessEnergy_tot          4192827.955955                       # Total dynamic energy dissipated in nJ
system.l2.tags.transitionsTo_VDD1                   0                       # Total number of transitions to VDD1
system.l2.tags.transitionsTo_VDD2                   0                       # Total number of transitions to VDD2
system.l2.tags.transitionsTo_VDD3                   0                       # Total number of transitions to VDD3
system.l2.tags.avgConsecutiveCycles_VDD1          nan                       # Average number of consecutive cycles spent at VDD1
system.l2.tags.avgConsecutiveCycles_VDD2          inf                       # Average number of consecutive cycles spent at VDD2
system.l2.tags.avgConsecutiveCycles_VDD3          nan                       # Average number of consecutive cycles spent at VDD3
system.l2.tags.proportionExecTime_VDD1              0                       # Proportion of total execution time that was spent at VDD1 for this cache
system.l2.tags.proportionExecTime_VDD2              1                       # Proportion of total execution time that was spent at VDD2 for this cache
system.l2.tags.proportionExecTime_VDD3              0                       # Proportion of total execution time that was spent at VDD3 for this cache
system.l2.tags.staticPower_avg            2315.546190                       # Average static power of this cache over the entire execution
system.l2.tags.numUnchangedFaultyTo_VDD1            0                       # Total number of unchanged (faulty) blocks during DPCS transition to VDD1
system.l2.tags.numUnchangedFaultyTo_VDD2            0                       # Total number of unchanged (faulty) blocks during DPCS transition to VDD2
system.l2.tags.numUnchangedFaultyTo_VDD3            0                       # Total number of unchanged (faulty) blocks during DPCS transition to VDD3
system.l2.tags.numFaultyWriteBacksTo_VDD1            0                       # Total number of faulty writebacks during DPCS transition to VDD1
system.l2.tags.numFaultyWriteBacksTo_VDD2            0                       # Total number of faulty writebacks during DPCS transition to VDD2
system.l2.tags.numFaultyWriteBacksTo_VDD3            0                       # Total number of faulty writebacks during DPCS transition to VDD3
system.l2.tags.numInvalidateOnlyTo_VDD1             0                       # Total number of blocks only invalidated during DPCS transition to VDD1
system.l2.tags.numInvalidateOnlyTo_VDD2             0                       # Total number of blocks only invalidated during DPCS transition to VDD2
system.l2.tags.numInvalidateOnlyTo_VDD3             0                       # Total number of blocks only invalidated during DPCS transition to VDD3
system.l2.tags.numMadeAvailableTo_VDD1              0                       # Total number of blocks made available (faulty to non-faulty) during DPCS transition to VDD1
system.l2.tags.numMadeAvailableTo_VDD2              0                       # Total number of blocks made available (faulty to non-faulty) during DPCS transition to VDD2
system.l2.tags.numMadeAvailableTo_VDD3              0                       # Total number of blocks made available (faulty to non-faulty) during DPCS transition to VDD3
system.l2.tags.numUnchangedNotFaultyTo_VDD1            0                       # Total number of blocks unchanged (not faulty) during DPCS transition to VDD1
system.l2.tags.numUnchangedNotFaultyTo_VDD2            0                       # Total number of blocks unchanged (not faulty) during DPCS transition to VDD2
system.l2.tags.numUnchangedNotFaultyTo_VDD3            0                       # Total number of blocks unchanged (not faulty) during DPCS transition to VDD3
system.l2.tags.faultyWriteBackRateTo_VDD1          nan                       # Average number of writebacks caused by faulty blocks when changing to VDD1
system.l2.tags.faultyWriteBackRateTo_VDD2          nan                       # Average number of writebacks caused by faulty blocks when changing to VDD2
system.l2.tags.faultyWriteBackRateTo_VDD3          nan                       # Average number of writebacks caused by faulty blocks when changing to VDD3
system.l2.tags.replacements                   1224600                       # number of replacements
[...]
system.cpu.icache.ReadReq_avg_mshr_miss_latency::total 74107.142857                       # average ReadReq mshr miss latency
system.cpu.icache.demand_avg_mshr_miss_latency::switch_cpus.inst 74107.142857                       # average overall mshr miss latency
system.cpu.icache.demand_avg_mshr_miss_latency::total 74107.142857                       # average overall mshr miss latency
system.cpu.icache.overall_avg_mshr_miss_latency::switch_cpus.inst 74107.142857                       # average overall mshr miss latency
system.cpu.icache.overall_avg_mshr_miss_latency::total 74107.142857                       # average overall mshr miss latency
system.cpu.icache.no_allocate_misses                0                       # Number of misses that were no-allocate
system.cpu.dcache.tags.numFaultyBlocks_VDD1           62                       # number of faulty blocks in the cache at VDD1 (lowest)
system.cpu.dcache.tags.numFaultyBlocks_VDD2            3                       # number of faulty blocks in the cache at VDD2 (mid)
system.cpu.dcache.tags.numFaultyBlocks_VDD3            0                       # number of faulty blocks in the cache at VDD3 (highest)
system.cpu.dcache.tags.blockFaultRate_VDD1     0.060547                       # Proportion of faulty blocks in the cache at VDD1
system.cpu.dcache.tags.blockFaultRate_VDD2     0.002930                       # Proportion of faulty blocks in the cache at VDD2
system.cpu.dcache.tags.blockFaultRate_VDD3            0                       # Proportion of faulty blocks in the cache at VDD3
system.cpu.dcache.tags.cycles_VDD1                  0                       # Total number of cycles spent on VDD1
system.cpu.dcache.tags.cycles_VDD2         2248024842                       # Total number of cycles spent on VDD2
system.cpu.dcache.tags.cycles_VDD3                  0                       # Total number of cycles spent on VDD3
system.cpu.dcache.tags.accessEnergy_VDD1            0                       # Total dynamic energy dissipated at VDD1 in nJ
system.cpu.dcache.tags.accessEnergy_VDD2 18138348.814723                       # Total dynamic energy dissipated at VDD2 in nJ
system.cpu.dcache.tags.accessEnergy_VDD3            0                       # Total dynamic energy dissipated at VDD3 in nJ
system.cpu.dcache.tags.accessEnergy_tot  18138348.814723                       # Total dynamic energy dissipated in nJ
system.cpu.dcache.tags.transitionsTo_VDD1            0                       # Total number of transitions to VDD1
system.cpu.dcache.tags.transitionsTo_VDD2            0                       # Total number of transitions to VDD2
system.cpu.dcache.tags.transitionsTo_VDD3            0                       # Total number of transitions to VDD3
system.cpu.dcache.tags.avgConsecutiveCycles_VDD1          nan                       # Average number of consecutive cycles spent at VDD1
system.cpu.dcache.tags.avgConsecutiveCycles_VDD2          inf                       # Average number of consecutive cycles spent at VDD2
system.cpu.dcache.tags.avgConsecutiveCycles_VDD3          nan                       # Average number of consecutive cycles spent at VDD3
system.cpu.dcache.tags.proportionExecTime_VDD1            0                       # Proportion of total execution time that was spent at VDD1 for this cache
system.cpu.dcache.tags.proportionExecTime_VDD2            1                       # Proportion of total execution time that was spent at VDD2 for this cache
system.cpu.dcache.tags.proportionExecTime_VDD3            0                       # Proportion of total execution time that was spent at VDD3 for this cache
system.cpu.dcache.tags.staticPower_avg      77.955970                       # Average static power of this cache over the entire execution
system.cpu.dcache.tags.numUnchangedFaultyTo_VDD1            0                       # Total number of unchanged (faulty) blocks during DPCS transition to VDD1
system.cpu.dcache.tags.numUnchangedFaultyTo_VDD2            0                       # Total number of unchanged (faulty) blocks during DPCS transition to VDD2
system.cpu.dcache.tags.numUnchangedFaultyTo_VDD3            0                       # Total number of unchanged (faulty) blocks during DPCS transition to VDD3
system.cpu.dcache.tags.numFaultyWriteBacksTo_VDD1            0                       # Total number of faulty writebacks during DPCS transition to VDD1
system.cpu.dcache.tags.numFaultyWriteBacksTo_VDD2            0                       # Total number of faulty writebacks during DPCS transition to VDD2
system.cpu.dcache.tags.numFaultyWriteBacksTo_VDD3            0                       # Total number of faulty writebacks during DPCS transition to VDD3
system.cpu.dcache.tags.numInvalidateOnlyTo_VDD1            0                       # Total number of blocks only invalidated during DPCS transition to VDD1
system.cpu.dcache.tags.numInvalidateOnlyTo_VDD2            0                       # Total number of blocks only invalidated during DPCS transition to VDD2
system.cpu.dcache.tags.numInvalidateOnlyTo_VDD3            0                       # Total number of blocks only invalidated during DPCS transition to VDD3
system.cpu.dcache.tags.numMadeAvailableTo_VDD1            0                       # Total number of blocks made available (faulty to non-faulty) during DPCS transition to VDD1
system.cpu.dcache.tags.numMadeAvailableTo_VDD2            0                       # Total number of blocks made available (faulty to non-faulty) during DPCS transition to VDD2
system.cpu.dcache.tags.numMadeAvailableTo_VDD3            0                       # Total number of blocks made available (faulty to non-faulty) during DPCS transition to VDD3
system.cpu.dcache.tags.numUnchangedNotFaultyTo_VDD1            0                       # Total number of blocks unchanged (not faulty) during DPCS transition to VDD1
system.cpu.dcache.tags.numUnchangedNotFaultyTo_VDD2            0                       # Total number of blocks unchanged (not faulty) during DPCS transition to VDD2
system.cpu.dcache.tags.numUnchangedNotFaultyTo_VDD3            0                       # Total number of blocks unchanged (not faulty) during DPCS transition to VDD3
system.cpu.dcache.tags.faultyWriteBackRateTo_VDD1          nan                       # Average number of writebacks caused by faulty blocks when changing to VDD1
system.cpu.dcache.tags.faultyWriteBackRateTo_VDD2          nan                       # Average number of writebacks caused by faulty blocks when changing to VDD2
system.cpu.dcache.tags.faultyWriteBackRateTo_VDD3          nan                       # Average number of writebacks caused by faulty blocks when changing to VDD3
system.cpu.dcache.tags.replacements          18352532                       # number of replacements
system.cpu.dcache.tags.tagsinuse                 1021                       # Cycle average of tags in use
system.cpu.dcache.tags.total_refs           768777831                       # Total number of references to valid blocks.
system.cpu.dcache.tags.sampled_refs          18353553                       # Sample count of references to valid blocks.
system.cpu.dcache.tags.avg_refs             41.887139                       # Average number of references to valid blocks.
system.cpu.dcache.tags.warmup_cycle                 0                       # Cycle when the warmup percentage was hit.
system.cpu.dcache.tags.occ_blocks::switch_cpus.data  1019.545847                       # Average occupied blocks per requestor
system.cpu.dcache.tags.occ_blocks::cpu.data     1.454153                       # Average occupied blocks per requestor
system.cpu.dcache.tags.occ_percent::switch_cpus.data     0.995650                       # Average percentage of cache occupancy
system.cpu.dcache.tags.occ_percent::cpu.data     0.001420                       # Average percentage of cache occupancy
system.cpu.dcache.tags.occ_percent::total     0.997070                       # Average percentage of cache occupancy
system.cpu.dcache.ReadReq_hits::switch_cpus.data    617715458                       # number of ReadReq hits
system.cpu.dcache.ReadReq_hits::total       617715458                       # number of ReadReq hits
system.cpu.dcache.WriteReq_hits::switch_cpus.data    148317570                       # number of WriteReq hits
system.cpu.dcache.WriteReq_hits::total      148317570                       # number of WriteReq hits
system.cpu.dcache.demand_hits::switch_cpus.data    766033028                       # number of demand (read+write) hits
system.cpu.dcache.demand_hits::total        766033028                       # number of demand (read+write) hits
system.cpu.dcache.overall_hits::switch_cpus.data    766033028                       # number of overall hits
system.cpu.dcache.overall_hits::total       766033028                       # number of overall hits
system.cpu.dcache.ReadReq_misses::switch_cpus.data     20837465                       # number of ReadReq misses
system.cpu.dcache.ReadReq_misses::total      20837465                       # number of ReadReq misses
system.cpu.dcache.WriteReq_misses::switch_cpus.data      6583084                       # number of WriteReq misses
system.cpu.dcache.WriteReq_misses::total      6583084                       # number of WriteReq misses
system.cpu.dcache.demand_misses::switch_cpus.data     27420549                       # number of demand (read+write) misses
system.cpu.dcache.demand_misses::total       27420549                       # number of demand (read+write) misses
system.cpu.dcache.overall_misses::switch_cpus.data     27420549                       # number of overall misses
system.cpu.dcache.overall_misses::total      27420549                       # number of overall misses
system.cpu.dcache.ReadReq_miss_latency::switch_cpus.data 289539099500                       # number of ReadReq miss cycles
system.cpu.dcache.ReadReq_miss_latency::total 289539099500                       # number of ReadReq miss cycles
system.cpu.dcache.WriteReq_miss_latency::switch_cpus.data 189056705820                       # number of WriteReq miss cycles
system.cpu.dcache.WriteReq_miss_latency::total 189056705820                       # number of WriteReq miss cycles
system.cpu.dcache.demand_miss_latency::switch_cpus.data 478595805320                       # number of demand (read+write) miss cycles
system.cpu.dcache.demand_miss_latency::total 478595805320                       # number of demand (read+write) miss cycles
system.cpu.dcache.overall_miss_latency::switch_cpus.data 478595805320                       # number of overall miss cycles
system.cpu.dcache.overall_miss_latency::total 478595805320                       # number of overall miss cycles
system.cpu.dcache.ReadReq_accesses::switch_cpus.data    638552923                       # number of ReadReq accesses(hits+misses)
system.cpu.dcache.ReadReq_accesses::total    638552923                       # number of ReadReq accesses(hits+misses)
system.cpu.dcache.WriteReq_accesses::switch_cpus.data    154900654                       # number of WriteReq accesses(hits+misses)
system.cpu.dcache.WriteReq_accesses::total    154900654                       # number of WriteReq accesses(hits+misses)
system.cpu.dcache.demand_accesses::switch_cpus.data    793453577                       # number of demand (read+write) accesses
system.cpu.dcache.demand_accesses::total    793453577                       # number of demand (read+write) accesses
system.cpu.dcache.overall_accesses::switch_cpus.data    793453577                       # number of overall (read+write) accesses
system.cpu.dcache.overall_accesses::total    793453577                       # number of overall (read+write) accesses
system.cpu.dcache.ReadReq_miss_rate::switch_cpus.data     0.032632                       # miss rate for ReadReq accesses
system.cpu.dcache.ReadReq_miss_rate::total     0.032632                       # miss rate for ReadReq accesses
system.cpu.dcache.WriteReq_miss_rate::switch_cpus.data     0.042499                       # miss rate for WriteReq accesses
system.cpu.dcache.WriteReq_miss_rate::total     0.042499                       # miss rate for WriteReq accesses
system.cpu.dcache.demand_miss_rate::switch_cpus.data     0.034558                       # miss rate for demand accesses
system.cpu.dcache.demand_miss_rate::total     0.034558                       # miss rate for demand accesses
system.cpu.dcache.overall_miss_rate::switch_cpus.data     0.034558                       # miss rate for overall accesses
system.cpu.dcache.overall_miss_rate::total     0.034558                       # miss rate for overall accesses
system.cpu.dcache.ReadReq_avg_miss_latency::switch_cpus.data 13895.121096                       # average ReadReq miss latency
system.cpu.dcache.ReadReq_avg_miss_latency::total 13895.121096                       # average ReadReq miss latency
system.cpu.dcache.WriteReq_avg_miss_latency::switch_cpus.data 28718.561972                       # average WriteReq miss latency
system.cpu.dcache.WriteReq_avg_miss_latency::total 28718.561972                       # average WriteReq miss latency
system.cpu.dcache.demand_avg_miss_latency::switch_cpus.data 17453.910398                       # average overall miss latency
system.cpu.dcache.demand_avg_miss_latency::total 17453.910398                       # average overall miss latency
system.cpu.dcache.overall_avg_miss_latency::switch_cpus.data 17453.910398                       # average overall miss latency
system.cpu.dcache.overall_avg_miss_latency::total 17453.910398                       # average overall miss latency
system.cpu.dcache.blocked_cycles::no_mshrs      4548390                       # number of cycles access was blocked
system.cpu.dcache.blocked_cycles::no_targets         3859                       # number of cycles access was blocked
system.cpu.dcache.blocked::no_mshrs            266332                       # number of cycles access was blocked
system.cpu.dcache.blocked::no_targets              98                       # number of cycles access was blocked
system.cpu.dcache.avg_blocked_cycles::no_mshrs    17.077895                       # average number of cycles each access was blocked
system.cpu.dcache.avg_blocked_cycles::no_targets    39.377551                       # average number of cycles each access was blocked
system.cpu.dcache.fast_writes                       0                       # number of fast writes performed
system.cpu.dcache.cache_copies                      0                       # number of cache copies performed
system.cpu.dcache.writebacks::writebacks      7271281                       # number of writebacks
system.cpu.dcache.writebacks::total           7271281                       # number of writebacks
system.cpu.dcache.ReadReq_mshr_hits::switch_cpus.data      6208985                       # number of ReadReq MSHR hits
system.cpu.dcache.ReadReq_mshr_hits::total      6208985                       # number of ReadReq MSHR hits
system.cpu.dcache.WriteReq_mshr_hits::switch_cpus.data      2859032                       # number of WriteReq MSHR hits
system.cpu.dcache.WriteReq_mshr_hits::total      2859032                       # number of WriteReq MSHR hits
system.cpu.dcache.demand_mshr_hits::switch_cpus.data      9068017                       # number of demand (read+write) MSHR hits
system.cpu.dcache.demand_mshr_hits::total      9068017                       # number of demand (read+write) MSHR hits
system.cpu.dcache.overall_mshr_hits::switch_cpus.data      9068017                       # number of overall MSHR hits
system.cpu.dcache.overall_mshr_hits::total      9068017                       # number of overall MSHR hits
system.cpu.dcache.ReadReq_mshr_misses::switch_cpus.data     14628480                       # number of ReadReq MSHR misses
system.cpu.dcache.ReadReq_mshr_misses::total     14628480                       # number of ReadReq MSHR misses
system.cpu.dcache.WriteReq_mshr_misses::switch_cpus.data      3724052                       # number of WriteReq MSHR misses
system.cpu.dcache.WriteReq_mshr_misses::total      3724052                       # number of WriteReq MSHR misses
system.cpu.dcache.demand_mshr_misses::switch_cpus.data     18352532                       # number of demand (read+write) MSHR misses
system.cpu.dcache.demand_mshr_misses::total     18352532                       # number of demand (read+write) MSHR misses
system.cpu.dcache.overall_mshr_misses::switch_cpus.data     18352532                       # number of overall MSHR misses
system.cpu.dcache.overall_mshr_misses::total     18352532                       # number of overall MSHR misses
system.cpu.dcache.ReadReq_mshr_miss_latency::switch_cpus.data  89389072500                       # number of ReadReq MSHR miss cycles
system.cpu.dcache.ReadReq_mshr_miss_latency::total  89389072500                       # number of ReadReq MSHR miss cycles
system.cpu.dcache.WriteReq_mshr_miss_latency::switch_cpus.data  60074860148                       # number of WriteReq MSHR miss cycles
system.cpu.dcache.WriteReq_mshr_miss_latency::total  60074860148                       # number of WriteReq MSHR miss cycles
system.cpu.dcache.demand_mshr_miss_latency::switch_cpus.data 149463932648                       # number of demand (read+write) MSHR miss cycles
system.cpu.dcache.demand_mshr_miss_latency::total 149463932648                       # number of demand (read+write) MSHR miss cycles
system.cpu.dcache.overall_mshr_miss_latency::switch_cpus.data 149463932648                       # number of overall MSHR miss cycles
system.cpu.dcache.overall_mshr_miss_latency::total 149463932648                       # number of overall MSHR miss cycles
system.cpu.dcache.ReadReq_mshr_miss_rate::switch_cpus.data     0.022909                       # mshr miss rate for ReadReq accesses
system.cpu.dcache.ReadReq_mshr_miss_rate::total     0.022909                       # mshr miss rate for ReadReq accesses
system.cpu.dcache.WriteReq_mshr_miss_rate::switch_cpus.data     0.024042                       # mshr miss rate for WriteReq accesses
system.cpu.dcache.WriteReq_mshr_miss_rate::total     0.024042                       # mshr miss rate for WriteReq accesses
system.cpu.dcache.demand_mshr_miss_rate::switch_cpus.data     0.023130                       # mshr miss rate for demand accesses
system.cpu.dcache.demand_mshr_miss_rate::total     0.023130                       # mshr miss rate for demand accesses
system.cpu.dcache.overall_mshr_miss_rate::switch_cpus.data     0.023130                       # mshr miss rate for overall accesses
system.cpu.dcache.overall_mshr_miss_rate::total     0.023130                       # mshr miss rate for overall accesses
system.cpu.dcache.ReadReq_avg_mshr_miss_latency::switch_cpus.data  6110.619319                       # average ReadReq mshr miss latency
system.cpu.dcache.ReadReq_avg_mshr_miss_latency::total  6110.619319                       # average ReadReq mshr miss latency
system.cpu.dcache.WriteReq_avg_mshr_miss_latency::switch_cpus.data 16131.584669                       # average WriteReq mshr miss latency
system.cpu.dcache.WriteReq_avg_mshr_miss_latency::total 16131.584669                       # average WriteReq mshr miss latency
system.cpu.dcache.demand_avg_mshr_miss_latency::switch_cpus.data  8144.049696                       # average overall mshr miss latency
system.cpu.dcache.demand_avg_mshr_miss_latency::total  8144.049696                       # average overall mshr miss latency
system.cpu.dcache.overall_avg_mshr_miss_latency::switch_cpus.data  8144.049696                       # average overall mshr miss latency
system.cpu.dcache.overall_avg_mshr_miss_latency::total  8144.049696                       # average overall mshr miss latency
system.cpu.dcache.no_allocate_misses                0                       # Number of misses that were no-allocate

---------- End Simulation Statistics   ----------
